@<TRIPOS>MOLECULE
alanine_ala
 13 12 0 0 0
SMALL
GASTEIGER

@<TRIPOS>ATOM
      1 O           1.4573   -1.0438    0.2682 O.3     1  ALA1       -0.4795
      2 OXT         1.2492    1.1165   -0.4047 O.2     1  ALA1       -0.2493
      3 N          -1.4105    1.1507    0.1821 N.3     1  ALA1       -0.3186
      4 CA         -0.7085   -0.1136    0.3937 C.3     1  ALA1        0.1004
      5 CB         -1.3345   -1.2000   -0.4702 C.3     1  ALA1       -0.0395
      6 C           0.7470    0.0903    0.0308 C.2     1  ALA1        0.3214
      7 HA         -0.7666   -0.3737    1.4558 H       1  ALA1        0.0571
      8 HB1        -0.8580   -2.1695   -0.2878 H       1  ALA1        0.0250
      9 HB2        -2.4023   -1.3127   -0.2521 H       1  ALA1        0.0250
     10 HB3        -1.2248   -0.9797   -1.5384 H       1  ALA1        0.0250
     11 H1         -2.3916    1.0420    0.4376 H       1  ALA1        0.1189
     12 H2         -1.4071    1.3875   -0.8099 H       1  ALA1        0.1189
     13 H           2.4062   -0.9341    0.0447 H       1  ALA1        0.2951
@<TRIPOS>BOND
     1     1     6    1
     2     1    13    1
     3     2     6    2
     4     3     4    1
     5     3    11    1
     6     3    12    1
     7     4     5    1
     8     4     6    1
     9     4     7    1
    10     5     8    1
    11     5     9    1
    12     5    10    1
