@<TRIPOS>MOLECULE
arginine_arg
 26 25 0 0 0
SMALL
GASTEIGER

@<TRIPOS>ATOM
      1 O          -2.3027   -1.9535   -0.2040 O.3     1  ARG1       -0.4795
      2 OXT        -3.4436   -0.5315    1.1465 O.2     1  ARG1       -0.2493
      3 N          -2.8917    1.6021   -0.3339 N.3     1  ARG1       -0.3184
      4 NE          1.9642   -0.2357    0.0497 N.pl3   1  ARG1       -0.1138
      5 NH1         3.9181   -1.4167   -0.3497 N.pl3   1  ARG1       -0.2893
      6 NH2         4.1368    0.7627    0.2805 N.pl3   1  ARG1       -0.2893
      7 CB         -0.7698    0.4929   -0.8697 C.3     1  ARG1       -0.0244
      8 CG         -0.1713    0.8748    0.4921 C.3     1  ARG1       -0.0167
      9 CA         -2.2988    0.3560   -0.8131 C.3     1  ARG1        0.1033
     10 CD          1.3447    1.0326    0.4373 C.3     1  ARG1        0.1047
     11 C          -2.7459   -0.7207    0.1586 C.2     1  ARG1        0.3217
     12 CZ          3.2599   -0.2630    0.0056 C.cat   1  ARG1        0.3765
     13 HB1        -0.3371   -0.4537   -1.2146 H       1  ARG1        0.0287
     14 HB2        -0.4987    1.2540   -1.6125 H       1  ARG1        0.0287
     15 HG1        -0.5946    1.8211    0.8474 H       1  ARG1        0.0297
     16 HG2        -0.4186    0.1088    1.2369 H       1  ARG1        0.0297
     17 HA         -2.7019    0.1202   -1.8038 H       1  ARG1        0.0574
     18 HD1         1.6008    1.8203   -0.2817 H       1  ARG1        0.0693
     19 HD2         1.6949    1.3401    1.4301 H       1  ARG1        0.0693
     20 H1         -3.9080    1.5421   -0.3876 H       1  ARG1        0.1190
     21 H2         -2.6212    2.3685   -0.9492 H       1  ARG1        0.1190
     22 H          -2.6025   -2.6477    0.4208 H       1  ARG1        0.2951
     23 HH11        3.4065   -2.2611   -0.5818 H       1  ARG1        0.2546
     24 HH12        4.9305   -1.4589   -0.3900 H       1  ARG1        0.2546
     25 HH21        5.1395    0.6251    0.2127 H       1  ARG1        0.2546
     26 HH22        3.8208    1.6857    0.5561 H       1  ARG1        0.2546
@<TRIPOS>BOND
     1     1    11    1
     2     1    22    1
     3     2    11    2
     4     3     9    1
     5     3    20    1
     6     3    21    1
     7     4    10    1
     8     4    12    2
     9     5    12    1
    10     5    23    1
    11     5    24    1
    12     6    12    1
    13     6    25    1
    14     6    26    1
    15     7     8    1
    16     7     9    1
    17     7    13    1
    18     7    14    1
    19     8    10    1
    20     8    15    1
    21     8    16    1
    22     9    11    1
    23     9    17    1
    24    10    18    1
    25    10    19    1
