@<TRIPOS>MOLECULE
asparagine_asn
 17 16 0 0 0
SMALL
GASTEIGER

@<TRIPOS>ATOM
      1 O           0.6999   -1.5909    0.8956 O.3     1  ASN1       -0.4795
      2 OXT         2.0189   -0.9167   -0.8203 O.2     1  ASN1       -0.2492
      3 OD1        -2.1454   -0.6098   -1.0603 O.2     1  ASN1       -0.2760
      4 N           1.7805    1.6834    0.0854 N.3     1  ASN1       -0.3180
      5 ND2        -2.1032    0.1565    1.1081 N.am    1  ASN1       -0.3293
      6 CA          0.6990    0.7436    0.3906 C.3     1  ASN1        0.1115
      7 CB         -0.5174    1.0666   -0.4797 C.3     1  ASN1        0.0493
      8 C           1.2275   -0.6457    0.0740 C.2     1  ASN1        0.3222
      9 CG         -1.6597    0.1130   -0.1934 C.2     1  ASN1        0.2125
     10 HA          0.4822    0.8127    1.4611 H       1  ASN1        0.0579
     11 HB1        -0.8691    2.0889   -0.2945 H       1  ASN1        0.0379
     12 HB2        -0.2732    0.9867   -1.5466 H       1  ASN1        0.0379
     13 H1          2.0356    1.6193   -0.8994 H       1  ASN1        0.1190
     14 H2          2.6135    1.4403    0.6200 H       1  ASN1        0.1190
     15 HD21       -1.7155    0.7905    1.7990 H       1  ASN1        0.1449
     16 HD22       -2.8660   -0.4370    1.4170 H       1  ASN1        0.1449
     17 H           1.0341   -2.4882    0.6823 H       1  ASN1        0.2951
@<TRIPOS>BOND
     1     1     8    1
     2     1    17    1
     3     2     8    2
     4     3     9    2
     5     4     6    1
     6     4    13    1
     7     4    14    1
     8     5     9   am
     9     5    15    1
    10     5    16    1
    11     6     7    1
    12     6     8    1
    13     6    10    1
    14     7     9    1
    15     7    11    1
    16     7    12    1
