@<TRIPOS>MOLECULE
aspartic_acid_asp
 16 15 0 0 0
SMALL
GASTEIGER

@<TRIPOS>ATOM
      1 O           0.8765   -1.7477    0.4612 O.3     1  ASP1       -0.4795
      2 OD1        -2.5468    0.2085   -1.0110 O.3     1  ASP1       -0.4806
      3 OXT         2.0079   -0.5891   -1.1272 O.2     1  ASP1       -0.2492
      4 OD2        -1.8021   -0.7792    0.8987 O.2     1  ASP1       -0.2509
      5 N           1.7445    1.6788    0.4055 N.3     1  ASP1       -0.3180
      6 CA          0.7272    0.6375    0.5499 C.3     1  ASP1        0.1133
      7 CB         -0.5957    1.1159   -0.0613 C.3     1  ASP1        0.0702
      8 C           1.2748   -0.5980   -0.1470 C.2     1  ASP1        0.3223
      9 CG         -1.6864    0.0732    0.0312 C.2     1  ASP1        0.3067
     10 HA          0.6051    0.4158    1.6166 H       1  ASP1        0.0579
     11 HB1        -0.4391    1.3530   -1.1219 H       1  ASP1        0.0398
     12 HB2        -0.9553    2.0203    0.4426 H       1  ASP1        0.0398
     13 H1          2.5932    1.3992    0.8965 H       1  ASP1        0.1190
     14 H2          1.4247    2.5341    0.8586 H       1  ASP1        0.1190
     15 H           1.2403   -2.5417    0.0146 H       1  ASP1        0.2951
     16 HD1        -3.2665   -0.4573   -0.9797 H       1  ASP1        0.2951
@<TRIPOS>BOND
     1     1     8    1
     2     1    15    1
     3     2     9    1
     4     2    16    1
     5     3     8    2
     6     4     9    2
     7     5     6    1
     8     5    13    1
     9     5    14    1
    10     6     7    1
    11     6     8    1
    12     6    10    1
    13     7     9    1
    14     7    11    1
    15     7    12    1
