@<TRIPOS>MOLECULE
cysteine_cys
 14 13 0 0 0
SMALL
GASTEIGER

@<TRIPOS>ATOM
      1 SG          2.2268    1.1231    0.0436 S.3     1  CYS1       -0.1762
      2 O          -1.3649    1.1718    0.9125 O.3     1  CYS1       -0.4795
      3 OXT        -1.1766    0.4956   -1.2446 O.2     1  CYS1       -0.2492
      4 N          -0.4351   -1.9834    0.1592 N.3     1  CYS1       -0.3178
      5 CA          0.1262   -0.6592    0.4341 C.3     1  CYS1        0.1120
      6 CB          1.4925   -0.5194   -0.2399 C.3     1  CYS1        0.0163
      7 C          -0.8690    0.3716   -0.0649 C.2     1  CYS1        0.3225
      8 HA          0.2375   -0.5515    1.5201 H       1  CYS1        0.0582
      9 HB1         2.1890   -1.2704    0.1485 H       1  CYS1        0.0394
     10 HB2         1.4157   -0.6634   -1.3235 H       1  CYS1        0.0394
     11 H1         -1.2936   -2.1083    0.6947 H       1  CYS1        0.1190
     12 H2          0.2095   -2.7023    0.4860 H       1  CYS1        0.1190
     13 HG          1.3385    1.8238   -0.6762 H       1  CYS1        0.1017
     14 H          -1.9919    1.8374    0.5574 H       1  CYS1        0.2951
@<TRIPOS>BOND
     1     1     6    1
     2     1    13    1
     3     2     7    1
     4     2    14    1
     5     3     7    2
     6     4     5    1
     7     4    11    1
     8     4    12    1
     9     5     6    1
    10     5     7    1
    11     5     8    1
    12     6     9    1
    13     6    10    1
