@<TRIPOS>MOLECULE
glutamine_gln
 20 19 0 0 0
SMALL
GASTEIGER

@<TRIPOS>ATOM
      1 O          -2.1389    1.6370    0.5099 O.3     1  GLN1       -0.4795
      2 OXT        -2.6773    0.2475   -1.1973 O.2     1  GLN1       -0.2493
      3 OE1         2.9039    0.2551    1.0351 O.2     1  GLN1       -0.2760
      4 N          -1.4789   -1.8922   -0.0291 N.3     1  GLN1       -0.3184
      5 NE2         3.2441    0.1932   -1.2385 N.am    1  GLN1       -0.3293
      6 CB          0.1338   -0.2355    0.8758 C.3     1  GLN1       -0.0191
      7 CA         -1.3424   -0.6086    0.6590 C.3     1  GLN1        0.1037
      8 CG          1.0032   -0.1458   -0.3839 C.3     1  GLN1        0.0257
      9 C          -2.1158    0.4356   -0.1257 C.2     1  GLN1        0.3217
     10 CD          2.4683    0.1136   -0.1051 C.2     1  GLN1        0.2105
     11 HB1         0.1904    0.7236    1.4071 H       1  GLN1        0.0290
     12 HB2         0.5783   -0.9764    1.5545 H       1  GLN1        0.0290
     13 HA         -1.8319   -0.7041    1.6355 H       1  GLN1        0.0574
     14 HG1         0.9500   -1.0821   -0.9509 H       1  GLN1        0.0359
     15 HG2         0.6339    0.6568   -1.0331 H       1  GLN1        0.0359
     16 H1         -1.1360   -1.8186   -0.9858 H       1  GLN1        0.1190
     17 H2         -2.4648   -2.1420   -0.0988 H       1  GLN1        0.1190
     18 HE21        2.8560    0.0780   -2.1693 H       1  GLN1        0.1449
     19 HE22        4.2414    0.3697   -1.1781 H       1  GLN1        0.1449
     20 H          -2.6450    2.3081    0.0041 H       1  GLN1        0.2951
@<TRIPOS>BOND
     1     1     9    1
     2     1    20    1
     3     2     9    2
     4     3    10    2
     5     4     7    1
     6     4    16    1
     7     4    17    1
     8     5    10   am
     9     5    18    1
    10     5    19    1
    11     6     7    1
    12     6     8    1
    13     6    11    1
    14     6    12    1
    15     7     9    1
    16     7    13    1
    17     8    10    1
    18     8    14    1
    19     8    15    1
