@<TRIPOS>MOLECULE
glycine_gly
 10 9 0 0 0
SMALL
GASTEIGER

@<TRIPOS>ATOM
      1 O          -1.6487    0.6571   -0.0104 O.3     1  GLY1       -0.4797
      2 OXT        -0.4837   -1.2934   -0.0005 O.2     1  GLY1       -0.2496
      3 N           1.9006   -0.0812   -0.0090 N.3     1  GLY1       -0.3209
      4 CA          0.7341    0.7867    0.0079 C.3     1  GLY1        0.0918
      5 C          -0.5023   -0.0691    0.0120 C.2     1  GLY1        0.3185
      6 HA1         0.7326    1.4215   -0.8824 H       1  GLY1        0.0537
      7 HA2         0.7464    1.4088    0.9069 H       1  GLY1        0.0537
      8 H1          1.8743   -0.6844   -0.8301 H       1  GLY1        0.1187
      9 H2          1.8887   -0.6969    0.8031 H       1  GLY1        0.1187
     10 H          -2.4447    0.0839   -0.0260 H       1  GLY1        0.2951
@<TRIPOS>BOND
     1     1     5    1
     2     1    10    1
     3     2     5    2
     4     3     4    1
     5     3     8    1
     6     3     9    1
     7     4     5    1
     8     4     6    1
     9     4     7    1
