@<TRIPOS>MOLECULE
histidine_his
 20 20 0 0 0
SMALL
GASTEIGER

@<TRIPOS>ATOM
      1 O          -1.0689   -1.6919   -0.7660 O.3     1  HIS1       -0.4795
      2 OXT        -2.4946   -1.1223    0.9038 O.2     1  HIS1       -0.2492
      3 ND1         1.6797    0.1409    1.1624 N.ar    1  HIS1       -0.3481
      4 N          -2.7494    1.3693   -0.2178 N.3     1  HIS1       -0.3181
      5 NE2         2.8201   -0.3365   -0.6825 N.ar    1  HIS1       -0.2440
      6 CB         -0.3579    1.3004    0.3217 C.3     1  HIS1        0.0146
      7 CA         -1.5062    0.6397   -0.4567 C.3     1  HIS1        0.1086
      8 CG          0.9671    0.6020    0.1195 C.ar    1  HIS1        0.0373
      9 C          -1.7498   -0.7917   -0.0102 C.2     1  HIS1        0.3221
     10 CD2         1.6556    0.3150   -1.0031 C.ar    1  HIS1        0.0485
     11 CE1         2.8043   -0.4249    0.6290 C.ar    1  HIS1        0.0935
     12 HB1        -0.5942    1.3196    1.3946 H       1  HIS1        0.0348
     13 HB2        -0.2433    2.3450    0.0039 H       1  HIS1        0.0348
     14 HA         -1.3124    0.6416   -1.5355 H       1  HIS1        0.0578
     15 HD1         1.4441    0.1943    2.1450 H       1  HIS1        0.1665
     16 HD2         1.3992    0.5299   -2.0301 H       1  HIS1        0.0848
     17 H1         -2.6419    2.3346   -0.5280 H       1  HIS1        0.1190
     18 H2         -2.9358    1.4198    0.7835 H       1  HIS1        0.1190
     19 HE1         3.5655   -0.8810    1.2458 H       1  HIS1        0.1027
     20 H          -1.2415   -2.6142   -0.4801 H       1  HIS1        0.2951
@<TRIPOS>BOND
     1     1     9    1
     2     1    20    1
     3     2     9    2
     4     3     8   ar
     5     3    11   ar
     6     3    15    1
     7     4     7    1
     8     4    17    1
     9     4    18    1
    10     5    10   ar
    11     5    11   ar
    12     6     7    1
    13     6     8    1
    14     6    12    1
    15     6    13    1
    16     7     9    1
    17     7    14    1
    18     8    10   ar
    19    10    16    1
    20    11    19    1
