@<TRIPOS>MOLECULE
isoleucine_ile
 22 21 0 0 0
SMALL
GASTEIGER

@<TRIPOS>ATOM
      1 O           1.7318    1.0709   -1.2228 O.3     1  ILE1       -0.4795
      2 OXT         2.2594    0.4785    0.9014 O.2     1  ILE1       -0.2492
      3 N           0.6284   -1.6112    0.9265 N.3     1  ILE1       -0.3182
      4 CB         -0.8499   -0.1966   -0.5113 C.3     1  ILE1       -0.0185
      5 CA          0.5599   -0.8012   -0.2932 C.3     1  ILE1        0.1058
      6 CG1        -1.3284    0.7162    0.6425 C.3     1  ILE1       -0.0514
      7 CG2        -1.8909   -1.2949   -0.7794 C.3     1  ILE1       -0.0605
      8 CD1        -2.7052    1.3375    0.4485 C.3     1  ILE1       -0.0650
      9 C           1.5949    0.3007   -0.1121 C.2     1  ILE1        0.3220
     10 HB         -0.8062    0.4240   -1.4171 H       1  ILE1        0.0318
     11 HA          0.8584   -1.4200   -1.1465 H       1  ILE1        0.0577
     12 HG11       -0.6102    1.5338    0.7760 H       1  ILE1        0.0266
     13 HG12       -1.3472    0.1596    1.5865 H       1  ILE1        0.0266
     14 HG21       -1.5242   -1.9957   -1.5374 H       1  ILE1        0.0233
     15 HG22       -2.1186   -1.8650    0.1273 H       1  ILE1        0.0233
     16 HG23       -2.8257   -0.8738   -1.1625 H       1  ILE1        0.0233
     17 HD11       -2.7682    1.8589   -0.5118 H       1  ILE1        0.0230
     18 HD12       -2.9027    2.0653    1.2424 H       1  ILE1        0.0230
     19 HD13       -3.4975    0.5847    0.4911 H       1  ILE1        0.0230
     20 H1          0.4726   -1.0328    1.7505 H       1  ILE1        0.1190
     21 H2          1.5632   -2.0056    1.0260 H       1  ILE1        0.1190
     22 H           2.4077    1.7712   -1.1008 H       1  ILE1        0.2951
@<TRIPOS>BOND
     1     1     9    1
     2     1    22    1
     3     2     9    2
     4     3     5    1
     5     3    20    1
     6     3    21    1
     7     4     5    1
     8     4     6    1
     9     4     7    1
    10     4    10    1
    11     5     9    1
    12     5    11    1
    13     6     8    1
    14     6    12    1
    15     6    13    1
    16     7    14    1
    17     7    15    1
    18     7    16    1
    19     8    17    1
    20     8    18    1
    21     8    19    1
