@<TRIPOS>MOLECULE
leucine_leu
 22 21 0 0 0
SMALL
GASTEIGER

@<TRIPOS>ATOM
      1 O           1.1033   -1.2860    1.2673 O.3     1  LEU1       -0.4795
      2 OXT         1.5537   -1.0509   -0.9426 O.2     1  LEU1       -0.2493
      3 N           1.7313    1.7545    0.0120 N.3     1  LEU1       -0.3184
      4 CG         -1.8021    0.1905   -0.4087 C.3     1  LEU1       -0.0448
      5 CB         -0.5643    1.0793   -0.6494 C.3     1  LEU1       -0.0250
      6 CA          0.6249    0.8408    0.2948 C.3     1  LEU1        0.1035
      7 CD1        -2.3423    0.3183    1.0160 C.3     1  LEU1       -0.0626
      8 CD2        -1.4509   -1.2719   -0.6984 C.3     1  LEU1       -0.0626
      9 C           1.1464   -0.5747    0.1090 C.2     1  LEU1        0.3217
     10 HG         -2.5824    0.5084   -1.1114 H       1  LEU1        0.0296
     11 HB1        -0.2445    0.9573   -1.6937 H       1  LEU1        0.0288
     12 HB2        -0.8798    2.1273   -0.5531 H       1  LEU1        0.0288
     13 HA          0.3267    0.9880    1.3375 H       1  LEU1        0.0574
     14 HD11       -1.6488   -0.0803    1.7629 H       1  LEU1        0.0232
     15 HD12       -2.5447    1.3661    1.2610 H       1  LEU1        0.0232
     16 HD13       -3.2828   -0.2347    1.1155 H       1  LEU1        0.0232
     17 HD21       -0.8590   -1.3871   -1.6109 H       1  LEU1        0.0232
     18 HD22       -0.9914   -1.7963    0.1398 H       1  LEU1        0.0232
     19 HD23       -2.3866   -1.8167   -0.8823 H       1  LEU1        0.0232
     20 H1          1.4154    2.7159    0.1372 H       1  LEU1        0.1190
     21 H2          1.9986    1.6785   -0.9694 H       1  LEU1        0.1190
     22 H           1.4347   -2.2013    1.1460 H       1  LEU1        0.2951
@<TRIPOS>BOND
     1     1     9    1
     2     1    22    1
     3     2     9    2
     4     3     6    1
     5     3    20    1
     6     3    21    1
     7     4     5    1
     8     4     7    1
     9     4     8    1
    10     4    10    1
    11     5     6    1
    12     5    11    1
    13     5    12    1
    14     6     9    1
    15     6    13    1
    16     7    14    1
    17     7    15    1
    18     7    16    1
    19     8    17    1
    20     8    18    1
    21     8    19    1
