@<TRIPOS>MOLECULE
lysine_lys
 24 23 0 0 0
SMALL
GASTEIGER

@<TRIPOS>ATOM
      1 O          -2.7908   -1.6235   -0.3318 O.3     1  LYS1       -0.4795
      2 OXT        -3.5637    0.2615    0.6609 O.2     1  LYS1       -0.2493
      3 N          -1.5026    1.7690   -0.0718 N.3     1  LYS1       -0.3184
      4 NZ          4.8579   -0.3942    0.2918 N.3     1  LYS1       -0.3300
      5 CG          1.1674    0.3292   -0.3051 C.3     1  LYS1       -0.0500
      6 CB         -0.1555   -0.2958    0.1586 C.3     1  LYS1       -0.0273
      7 CD          2.4066   -0.3826    0.2435 C.3     1  LYS1       -0.0406
      8 CA         -1.4135    0.3533   -0.4323 C.3     1  LYS1        0.1032
      9 CE          3.6883    0.3006   -0.2331 C.3     1  LYS1       -0.0069
     10 C          -2.6942   -0.3175    0.0195 C.2     1  LYS1        0.3217
     11 HG1         1.2003    1.3818    0.0009 H       1  LYS1        0.0266
     12 HG2         1.2016    0.3162   -1.4017 H       1  LYS1        0.0266
     13 HB1        -0.2045   -0.2620    1.2554 H       1  LYS1        0.0286
     14 HB2        -0.1479   -1.3614   -0.1051 H       1  LYS1        0.0286
     15 HD1         2.3982   -1.4306   -0.0810 H       1  LYS1        0.0277
     16 HD2         2.3689   -0.3832    1.3401 H       1  LYS1        0.0277
     17 HA         -1.3829    0.2891   -1.5263 H       1  LYS1        0.0574
     18 HE1         3.7077    1.3445    0.0985 H       1  LYS1        0.0422
     19 HE2         3.7326    0.2970   -1.3275 H       1  LYS1        0.0422
     20 H1         -1.5674    1.8676    0.9405 H       1  LYS1        0.1190
     21 H2         -2.3525    2.1750   -0.4609 H       1  LYS1        0.1190
     22 HZ1         4.8417   -0.3724    1.3106 H       1  LYS1        0.1182
     23 HZ2         5.7014    0.1029    0.0088 H       1  LYS1        0.1182
     24 H          -3.6273   -2.0269   -0.0160 H       1  LYS1        0.2951
@<TRIPOS>BOND
     1     1    10    1
     2     1    24    1
     3     2    10    2
     4     3     8    1
     5     3    20    1
     6     3    21    1
     7     4     9    1
     8     4    22    1
     9     4    23    1
    10     5     6    1
    11     5     7    1
    12     5    11    1
    13     5    12    1
    14     6     8    1
    15     6    13    1
    16     6    14    1
    17     7     9    1
    18     7    15    1
    19     7    16    1
    20     8    10    1
    21     8    17    1
    22     9    18    1
    23     9    19    1
