@<TRIPOS>MOLECULE
methionine_met
 20 19 0 0 0
SMALL
GASTEIGER

@<TRIPOS>ATOM
      1 SD          2.2858    0.9701    0.2797 S.3     1  MET1       -0.1641
      2 O          -1.1607    1.6402    0.6921 O.3     1  MET1       -0.4795
      3 OXT        -2.5905    0.3693   -0.5240 O.2     1  MET1       -0.2493
      4 N          -1.3628   -1.8775    0.4986 N.3     1  MET1       -0.3184
      5 CB          0.4156   -0.8111   -0.8013 C.3     1  MET1       -0.0183
      6 CA         -0.5662   -0.6533    0.3686 C.3     1  MET1        0.1040
      7 CG          1.2656    0.4223   -1.1208 C.3     1  MET1       -0.0047
      8 C          -1.5486    0.4754    0.1110 C.2     1  MET1        0.3217
      9 CE          3.2617   -0.5355    0.4960 C.3     1  MET1       -0.0181
     10 HB1         1.0596   -1.6832   -0.6351 H       1  MET1        0.0293
     11 HB2        -0.1540   -1.0435   -1.7128 H       1  MET1        0.0293
     12 HA         -0.0512   -0.4839    1.3194 H       1  MET1        0.0574
     13 HG1         0.6282    1.2591   -1.4238 H       1  MET1        0.0377
     14 HG2         1.9239    0.2090   -1.9700 H       1  MET1        0.0377
     15 H1         -1.9632   -1.8082    1.3197 H       1  MET1        0.1190
     16 H2         -0.7442   -2.6701    0.6669 H       1  MET1        0.1190
     17 HE1         2.6638   -1.3256    0.9562 H       1  MET1        0.0340
     18 HE2         4.0990   -0.3183    1.1653 H       1  MET1        0.0340
     19 HE3         3.6690   -0.8794   -0.4583 H       1  MET1        0.0340
     20 H          -1.8051    2.3619    0.5302 H       1  MET1        0.2951
@<TRIPOS>BOND
     1     1     7    1
     2     1     9    1
     3     2     8    1
     4     2    20    1
     5     3     8    2
     6     4     6    1
     7     4    15    1
     8     4    16    1
     9     5     6    1
    10     5     7    1
    11     5    10    1
    12     5    11    1
    13     6     8    1
    14     6    12    1
    15     7    13    1
    16     7    14    1
    17     9    17    1
    18     9    18    1
    19     9    19    1
