@<TRIPOS>MOLECULE
phenylalanine_phe
 23 23 0 0 0
SMALL
GASTEIGER

@<TRIPOS>ATOM
      1 O          -1.5606   -1.5480   -1.0372 O.3     1  PHE1       -0.4795
      2 OXT        -3.1863   -1.0236    0.4554 O.2     1  PHE1       -0.2492
      3 N          -2.7945    1.6326   -0.1118 N.3     1  PHE1       -0.3181
      4 CB         -0.6090    0.9812    0.7905 C.3     1  PHE1       -0.0020
      5 CA         -1.6652    0.7241   -0.2957 C.3     1  PHE1        0.1072
      6 CG          0.7593    0.4612    0.4141 C.ar    1  PHE1       -0.0454
      7 CD1         1.1082   -0.8355    0.7537 C.ar    1  PHE1       -0.0585
      8 CD2         1.6370    1.2913   -0.2633 C.ar    1  PHE1       -0.0585
      9 C          -2.2259   -0.6859   -0.2249 C.2     1  PHE1        0.3220
     10 CE1         2.3708   -1.3157    0.4062 C.ar    1  PHE1       -0.0615
     11 CE2         2.8996    0.8109   -0.6109 C.ar    1  PHE1       -0.0615
     12 CZ          3.2665   -0.4925   -0.2761 C.ar    1  PHE1       -0.0617
     13 HB1        -0.9180    0.5378    1.7471 H       1  PHE1        0.0334
     14 HB2        -0.5161    2.0589    0.9859 H       1  PHE1        0.0334
     15 HA         -1.2654    0.8943   -1.3020 H       1  PHE1        0.0577
     16 HD1         0.4193   -1.4840    1.2872 H       1  PHE1        0.0620
     17 HD2         1.3595    2.3068   -0.5307 H       1  PHE1        0.0620
     18 H1         -2.4744    2.5968   -0.1977 H       1  PHE1        0.1190
     19 H2         -3.1587    1.5450    0.8368 H       1  PHE1        0.1190
     20 HE1         2.6567   -2.3305    0.6672 H       1  PHE1        0.0618
     21 HE2         3.5970    1.4516   -1.1428 H       1  PHE1        0.0618
     22 HZ          4.2496   -0.8665   -0.5468 H       1  PHE1        0.0618
     23 H          -1.9362   -2.4531   -0.9956 H       1  PHE1        0.2951
@<TRIPOS>BOND
     1     1     9    1
     2     1    23    1
     3     2     9    2
     4     3     5    1
     5     3    18    1
     6     3    19    1
     7     4     5    1
     8     4     6    1
     9     4    13    1
    10     4    14    1
    11     5     9    1
    12     5    15    1
    13     6     7   ar
    14     6     8   ar
    15     7    10   ar
    16     7    16    1
    17     8    11   ar
    18     8    17    1
    19    10    12   ar
    20    10    20    1
    21    11    12   ar
    22    11    21    1
    23    12    22    1
