@<TRIPOS>MOLECULE
proline_pro
 17 17 0 0 0
SMALL
GASTEIGER

@<TRIPOS>ATOM
      1 O           2.1617   -0.9509   -0.1119 O.3     1  PRO1       -0.4795
      2 OXT         1.5688    1.2164   -0.4953 O.2     1  PRO1       -0.2492
      3 N          -0.7807    0.9314    0.7770 N.3     1  PRO1       -0.3041
      4 CA          0.0834   -0.2476    0.7251 C.3     1  PRO1        0.1057
      5 CB         -0.7235   -1.3171   -0.0031 C.3     1  PRO1       -0.0260
      6 CG         -1.9888   -0.6106   -0.4752 C.3     1  PRO1       -0.0385
      7 CD         -1.6499    0.8635   -0.3933 C.3     1  PRO1       -0.0033
      8 C           1.3289    0.1149   -0.0235 C.2     1  PRO1        0.3219
      9 HA          0.3625   -0.5522    1.7389 H       1  PRO1        0.0576
     10 HB1        -0.9873   -2.1429    0.6671 H       1  PRO1        0.0286
     11 HB2        -0.1919   -1.7411   -0.8624 H       1  PRO1        0.0286
     12 HG1        -2.2798   -0.9157   -1.4848 H       1  PRO1        0.0278
     13 HG2        -2.8187   -0.8485    0.2018 H       1  PRO1        0.0278
     14 HD1        -1.1204    1.1932   -1.2945 H       1  PRO1        0.0424
     15 HD2        -2.5424    1.4831   -0.2694 H       1  PRO1        0.0424
     16 H          -0.2509    1.8003    0.8023 H       1  PRO1        0.1227
     17 H           2.9837   -0.7341   -0.6014 H       1  PRO1        0.2951
@<TRIPOS>BOND
     1     1     8    1
     2     1    17    1
     3     2     8    2
     4     3     4    1
     5     3     7    1
     6     3    16    1
     7     4     5    1
     8     4     8    1
     9     4     9    1
    10     5     6    1
    11     5    10    1
    12     5    11    1
    13     6     7    1
    14     6    12    1
    15     6    13    1
    16     7    14    1
    17     7    15    1
