@<TRIPOS>MOLECULE
serine_ser
 14 13 0 0 0
SMALL
GASTEIGER

@<TRIPOS>ATOM
      1 OG          1.9164    1.0306   -0.2064 O.3     1  SER1       -0.3929
      2 O          -0.9147    1.4730    0.6928 O.3     1  SER1       -0.4795
      3 OXT        -1.6876    0.0439   -0.8956 O.2     1  SER1       -0.2492
      4 N          -0.1783   -1.9614    0.3145 N.3     1  SER1       -0.3166
      5 CA          0.2499   -0.5719    0.4674 C.3     1  SER1        0.1265
      6 CB          1.5043   -0.3229   -0.3653 C.3     1  SER1        0.0697
      7 C          -0.8900    0.3087   -0.0075 C.2     1  SER1        0.3240
      8 HA          0.4351   -0.3707    1.5285 H       1  SER1        0.0597
      9 HB1         2.3293   -0.9735   -0.0556 H       1  SER1        0.0578
     10 HB2         1.3198   -0.4858   -1.4328 H       1  SER1        0.0578
     11 H1         -0.3831   -2.1614   -0.6638 H       1  SER1        0.1190
     12 H2         -1.0421   -2.1182    0.8321 H       1  SER1        0.1190
     13 H           2.1022    1.1706    0.7378 H       1  SER1        0.2095
     14 H          -1.6432    2.0607    0.3991 H       1  SER1        0.2951
@<TRIPOS>BOND
     1     1     6    1
     2     1    13    1
     3     2     7    1
     4     2    14    1
     5     3     7    2
     6     4     5    1
     7     4    11    1
     8     4    12    1
     9     5     6    1
    10     5     7    1
    11     5     8    1
    12     6     9    1
    13     6    10    1
