@<TRIPOS>MOLECULE
threonine_thr
 17 16 0 0 0
SMALL
GASTEIGER

@<TRIPOS>ATOM
      1 OG1        -1.7106   -1.1847    0.3581 O.3     1  THR1       -0.3900
      2 O           0.9758   -1.6811    0.1310 O.3     1  THR1       -0.4795
      3 OXT         2.0214    0.1505   -0.7007 O.2     1  THR1       -0.2492
      4 N           0.4053    1.8669    0.5743 N.3     1  THR1       -0.3164
      5 CB         -1.3544    0.1880    0.2043 C.3     1  THR1        0.0779
      6 CA          0.0664    0.4488    0.7285 C.3     1  THR1        0.1291
      7 CG2        -1.5255    0.5514   -1.2654 C.3     1  THR1       -0.0369
      8 C           1.1216   -0.3398   -0.0300 C.2     1  THR1        0.3243
      9 HA          0.1453    0.1699    1.7857 H       1  THR1        0.0600
     10 HB         -2.0741    0.7709    0.7921 H       1  THR1        0.0611
     11 HG21       -1.3273    1.6097   -1.4579 H       1  THR1        0.0255
     12 HG22       -2.5518    0.3376   -1.5856 H       1  THR1        0.0255
     13 HG23       -0.8762   -0.0531   -1.9078 H       1  THR1        0.0255
     14 H1          1.3076    2.0515    1.0115 H       1  THR1        0.1190
     15 H2         -0.2745    2.4357    1.0777 H       1  THR1        0.1190
     16 HG1        -1.6070   -1.4093    1.2985 H       1  THR1        0.2098
     17 H           1.6641   -2.1843   -0.3540 H       1  THR1        0.2951
@<TRIPOS>BOND
     1     1     5    1
     2     1    16    1
     3     2     8    1
     4     2    17    1
     5     3     8    2
     6     4     6    1
     7     4    14    1
     8     4    15    1
     9     5     6    1
    10     5     7    1
    11     5    10    1
    12     6     8    1
    13     6     9    1
    14     7    11    1
    15     7    12    1
    16     7    13    1
