@<TRIPOS>MOLECULE
tryptophan_trp
 27 28 0 0 0
SMALL
GASTEIGER

@<TRIPOS>ATOM
      1 O           1.4762   -0.8154    1.7282 O.3     1  TRP1       -0.4795
      2 OXT         2.5598   -1.9472    0.0879 O.2     1  TRP1       -0.2492
      3 NE1        -1.6474    2.0044    0.5482 N.ar    1  TRP1       -0.3604
      4 N           3.8759    0.3655   -0.5832 N.3     1  TRP1       -0.3181
      5 CG          0.1475    1.1323   -0.4236 C.ar    1  TRP1       -0.0204
      6 CB          1.5065    0.9845   -0.9830 C.3     1  TRP1       -0.0001
      7 CD2        -0.8667    0.1349   -0.3859 C.ar    1  TRP1        0.0029
      8 CA          2.5601    0.4881    0.0402 C.3     1  TRP1        0.1073
      9 CE2        -1.9823    0.7078    0.2286 C.ar    1  TRP1        0.0467
     10 CD1        -0.3625    2.2702    0.1579 C.ar    1  TRP1        0.0060
     11 CE3        -0.9431   -1.2045   -0.8169 C.ar    1  TRP1       -0.0523
     12 CZ2        -3.1751    0.0055    0.4346 C.ar    1  TRP1       -0.0378
     13 C           2.2083   -0.8852    0.5860 C.2     1  TRP1        0.3220
     14 CZ3        -2.1298   -1.9193   -0.6176 C.ar    1  TRP1       -0.0611
     15 CH2        -3.2274   -1.3216   -0.0012 C.ar    1  TRP1       -0.0598
     16 HB1         1.4724    0.2941   -1.8370 H       1  TRP1        0.0334
     17 HB2         1.8346    1.9497   -1.3927 H       1  TRP1        0.0334
     18 HA          2.6391    1.1902    0.8789 H       1  TRP1        0.0577
     19 HD1         0.0723    3.2449    0.3304 H       1  TRP1        0.0810
     20 HE1        -2.2620    2.6639    1.0051 H       1  TRP1        0.1653
     21 HE3        -0.1001   -1.6864   -1.3035 H       1  TRP1        0.0624
     22 HZ2        -4.0301    0.4699    0.9143 H       1  TRP1        0.0638
     23 HZ3        -2.1948   -2.9522   -0.9490 H       1  TRP1        0.0618
     24 H1          4.5715    0.1348    0.1255 H       1  TRP1        0.1190
     25 H2          4.1549    1.2657   -0.9717 H       1  TRP1        0.1190
     26 HH2        -4.1393   -1.8953    0.1434 H       1  TRP1        0.0618
     27 H           1.2617   -1.7057    2.0797 H       1  TRP1        0.2951
@<TRIPOS>BOND
     1     1    13    1
     2     1    27    1
     3     2    13    2
     4     3     9   ar
     5     3    10   ar
     6     3    20    1
     7     4     8    1
     8     4    24    1
     9     4    25    1
    10     5     6    1
    11     5     7   ar
    12     5    10   ar
    13     6     8    1
    14     6    16    1
    15     6    17    1
    16     7     9   ar
    17     7    11   ar
    18     8    13    1
    19     8    18    1
    20     9    12   ar
    21    10    19    1
    22    11    14   ar
    23    11    21    1
    24    12    15   ar
    25    12    22    1
    26    14    15   ar
    27    14    23    1
    28    15    26    1
