@<TRIPOS>MOLECULE
tyrosine_tyr
 24 24 0 0 0
SMALL
GASTEIGER

@<TRIPOS>ATOM
      1 O          -1.7727   -1.6313   -0.9931 O.3     1  TYR1       -0.4795
      2 OH          4.2183   -0.6351   -0.3947 O.3     1  TYR1       -0.5068
      3 OXT        -3.4801   -1.1584    0.4234 O.2     1  TYR1       -0.2492
      4 N          -3.2387    1.4947   -0.2351 N.3     1  TYR1       -0.3181
      5 CB         -1.0493    1.0210    0.7633 C.3     1  TYR1       -0.0020
      6 CA         -2.0479    0.6553   -0.3458 C.3     1  TYR1        0.1072
      7 CG          0.3618    0.5774    0.4529 C.ar    1  TYR1       -0.0451
      8 CD1         0.7803   -0.6798    0.8553 C.ar    1  TYR1       -0.0551
      9 CD2         1.2077    1.4373   -0.2276 C.ar    1  TYR1       -0.0551
     10 C          -2.5197   -0.7846   -0.2378 C.2     1  TYR1        0.3220
     11 CE1         2.0827   -1.0891    0.5690 C.ar    1  TYR1       -0.0199
     12 CE2         2.5101    1.0280   -0.5141 C.ar    1  TYR1       -0.0199
     13 CZ          2.9476   -0.2353   -0.1158 C.ar    1  TYR1        0.1169
     14 HB1        -1.3631    0.5945    1.7261 H       1  TYR1        0.0334
     15 HB2        -1.0322    2.1089    0.9190 H       1  TYR1        0.0334
     16 HA         -1.6246    0.8135   -1.3445 H       1  TYR1        0.0577
     17 HD1         0.1158   -1.3512    1.3914 H       1  TYR1        0.0621
     18 HD2         0.8752    2.4217   -0.5440 H       1  TYR1        0.0621
     19 H1         -2.9777    2.4737   -0.3486 H       1  TYR1        0.1190
     20 H2         -3.6297    1.4190    0.7038 H       1  TYR1        0.1190
     21 HE1         2.4114   -2.0754    0.8853 H       1  TYR1        0.0654
     22 HE2         3.1790    1.6973   -1.0482 H       1  TYR1        0.0654
     23 H          -2.0912   -2.5568   -0.9282 H       1  TYR1        0.2951
     24 HH          4.3494   -1.5339   -0.0467 H       1  TYR1        0.2921
@<TRIPOS>BOND
     1     1    10    1
     2     1    23    1
     3     2    13    1
     4     2    24    1
     5     3    10    2
     6     4     6    1
     7     4    19    1
     8     4    20    1
     9     5     6    1
    10     5     7    1
    11     5    14    1
    12     5    15    1
    13     6    10    1
    14     6    16    1
    15     7     8   ar
    16     7     9   ar
    17     8    11   ar
    18     8    17    1
    19     9    12   ar
    20     9    18    1
    21    11    13   ar
    22    11    21    1
    23    12    13   ar
    24    12    22    1
