@<TRIPOS>MOLECULE
5_10_methylenetetrahydrofolate
 56 59 0 0 0
SMALL
GASTEIGER

@<TRIPOS>ATOM
      1 O          -4.7595   -1.7694    1.6571 O.2     1  UNL1       -0.2657
      2 O           4.0133    0.0609    2.5948 O.2     1  UNL1       -0.2702
      3 O           8.0027    1.7876    0.0427 O.3     1  UNL1       -0.4793
      4 OXT         6.0831    2.4069   -0.9976 O.2     1  UNL1       -0.2489
      5 OE1         6.7619   -3.0768   -2.6709 O.3     1  UNL1       -0.4806
      6 OE2         7.4358   -3.4208   -0.5321 O.2     1  UNL1       -0.2510
      7 N          -4.0391    0.4303   -0.0429 N.pl3   1  UNL1       -0.3011
      8 N          -1.7720    0.9002    0.1286 N.pl3   1  UNL1       -0.3122
      9 N          -5.9691    1.3046   -1.7528 N.pl3   1  UNL1       -0.3255
     10 N          -7.5607   -0.2719   -0.8690 N.ar    1  UNL1       -0.1994
     11 N          -6.8755   -1.7838    0.7844 N.ar    1  UNL1       -0.2937
     12 N          -9.0623   -1.8552   -0.0183 N.pl3   1  UNL1       -0.3289
     13 N           4.5970    0.6876    0.4399 N.am    1  UNL1       -0.2983
     14 C          -3.8120    1.7114   -0.7242 C.3     1  UNL1        0.0563
     15 C          -2.2932    1.7783   -0.9158 C.3     1  UNL1        0.0337
     16 C          -2.8196    0.0141    0.6331 C.3     1  UNL1        0.0793
     17 C          -4.6144    1.7565   -2.0209 C.3     1  UNL1        0.0306
     18 C          -5.2960   -0.1668   -0.0437 C.ar    1  UNL1        0.1367
     19 C          -6.2882    0.2692   -0.8686 C.ar    1  UNL1        0.1490
     20 C          -0.4381    0.7809    0.4537 C.ar    1  UNL1        0.0310
     21 C          -5.5857   -1.3048    0.8785 C.ar    1  UNL1        0.2757
     22 C           0.5161    1.5306   -0.2340 C.ar    1  UNL1       -0.0399
     23 C          -0.0421   -0.0884    1.4703 C.ar    1  UNL1       -0.0399
     24 C          -7.8282   -1.2627   -0.0701 C.ar    1  UNL1        0.1948
     25 C           1.8663    1.4110    0.0947 C.ar    1  UNL1       -0.0479
     26 C           1.3081   -0.2080    1.7989 C.ar    1  UNL1       -0.0479
     27 C           2.2625    0.5416    1.1110 C.ar    1  UNL1        0.0368
     28 C           3.6701    0.4158    1.4531 C.2     0  ACE0        0.2447
     29 CA          6.0277    0.5843    0.6169 C.3     1  UNL1        0.1209
     30 CB          6.5620   -0.8207    0.3136 C.3     1  UNL1       -0.0140
     31 CG          6.3719   -1.3117   -1.1271 C.3     1  UNL1        0.0470
     32 C           6.6724    1.6762   -0.2119 C.2     1  UNL1        0.3253
     33 CD          6.9046   -2.7069   -1.3713 C.2     1  UNL1        0.3048
     34 H          -4.1381    2.5158   -0.0508 H       1  UNL1        0.0531
     35 H          -1.9941    1.4033   -1.9016 H       1  UNL1        0.0483
     36 H          -1.9523    2.8138   -0.8072 H       1  UNL1        0.0483
     37 H          -2.5885   -1.0279    0.3850 H       1  UNL1        0.0672
     38 H          -2.9337    0.1339    1.7160 H       1  UNL1        0.0672
     39 H          -4.6283    2.7714   -2.4314 H       1  UNL1        0.0480
     40 H          -4.1739    1.0979   -2.7789 H       1  UNL1        0.0480
     41 H          -6.7135    1.5971   -2.3773 H       1  UNL1        0.1476
     42 H           0.2499    2.2193   -1.0304 H       1  UNL1        0.0636
     43 H          -0.7543   -0.6871    2.0306 H       1  UNL1        0.0636
     44 H          -7.1413   -2.5583    1.3853 H       1  UNL1        0.1716
     45 H           2.5727    2.0350   -0.4451 H       1  UNL1        0.0626
     46 H           1.5967   -0.8938    2.5913 H       1  UNL1        0.0626
     47 H          -9.8224   -1.5379   -0.6100 H       1  UNL1        0.1451
     48 H          -9.2527   -2.6270    0.6114 H       1  UNL1        0.1451
     49 HA          6.2411    0.8207    1.6671 H       1  UNL1        0.0614
     50 H           4.2700    0.8952   -0.4981 H       1  UNL1        0.1498
     51 HB1         6.0801   -1.5372    0.9921 H       1  UNL1        0.0294
     52 HB2         7.6332   -0.8547    0.5520 H       1  UNL1        0.0294
     53 HG1         6.8897   -0.6349   -1.8157 H       1  UNL1        0.0378
     54 HG2         5.3051   -1.3188   -1.3765 H       1  UNL1        0.0378
     55 H           8.4162    2.5053   -0.4828 H       1  UNL1        0.2951
     56 HE1         7.1227   -3.9737   -2.8373 H       1  UNL1        0.2951
@<TRIPOS>BOND
     1     1    21    2
     2     2    28    2
     3     3    32    1
     4     3    55    1
     5     4    32    2
     6     5    33    1
     7     5    56    1
     8     6    33    2
     9     7    14    1
    10     7    16    1
    11     7    18    1
    12     8    15    1
    13     8    16    1
    14     8    20    1
    15     9    17    1
    16     9    19    1
    17     9    41    1
    18    10    19   ar
    19    10    24   ar
    20    11    21   ar
    21    11    24   ar
    22    11    44    1
    23    12    24    1
    24    12    47    1
    25    12    48    1
    26    13    28   am
    27    13    29    1
    28    13    50    1
    29    14    15    1
    30    14    17    1
    31    14    34    1
    32    15    35    1
    33    15    36    1
    34    16    37    1
    35    16    38    1
    36    17    39    1
    37    17    40    1
    38    18    19   ar
    39    18    21   ar
    40    20    22   ar
    41    20    23   ar
    42    22    25   ar
    43    22    42    1
    44    23    26   ar
    45    23    43    1
    46    25    27   ar
    47    25    45    1
    48    26    27   ar
    49    26    46    1
    50    27    28    1
    51    29    30    1
    52    29    32    1
    53    29    49    1
    54    30    31    1
    55    30    51    1
    56    30    52    1
    57    31    33    1
    58    31    53    1
    59    31    54    1
