@<TRIPOS>MOLECULE
5_methyltetrahydrofolate
 58 60 0 0 0
SMALL
GASTEIGER

@<TRIPOS>ATOM
      1 O           6.5599   -2.7804    0.0239 O.2     1  UNL1       -0.2657
      2 O          -3.7417    0.8904   -2.3246 O.2     1  UNL1       -0.2702
      3 O          -8.1750    1.9982   -0.1966 O.3     1  UNL1       -0.4793
      4 OXT        -6.5109    2.1589    1.3382 O.2     1  UNL1       -0.2489
      5 OE1        -7.4960   -3.5237    1.0738 O.3     1  UNL1       -0.4806
      6 OE2        -7.7174   -3.1642   -1.1553 O.2     1  UNL1       -0.2510
      7 N           4.8131   -0.8564    1.3154 N.pl3   1  UNL1       -0.3201
      8 N           5.1920    1.7470    0.5152 N.pl3   1  UNL1       -0.3255
      9 N           1.4244    0.5993    1.3661 N.pl3   1  UNL1       -0.3420
     10 N           6.8870    1.1121   -1.0523 N.ar    1  UNL1       -0.1994
     11 N           7.5359   -1.1277   -1.2057 N.ar    1  UNL1       -0.2937
     12 N          -4.7558    0.8697   -0.2394 N.am    1  UNL1       -0.2983
     13 N           8.5718    0.4702   -2.5469 N.pl3   1  UNL1       -0.3289
     14 C           3.7838    0.1388    1.6953 C.3     1  UNL1        0.0543
     15 C           4.3969    1.5434    1.7056 C.3     1  UNL1        0.0305
     16 C           2.5914    0.0400    0.7401 C.3     1  UNL1        0.0291
     17 C           5.7836   -0.5227    0.3490 C.ar    1  UNL1        0.1353
     18 C           5.9713    0.7576   -0.0791 C.ar    1  UNL1        0.1489
     19 C           4.6396   -2.1831    1.8999 C.3     1  UNL1        0.0013
     20 C           6.6410   -1.5907   -0.2645 C.ar    1  UNL1        0.2757
     21 C           0.1756    0.6638    0.7610 C.ar    1  UNL1        0.0272
     22 C           7.6377    0.1948   -1.5838 C.ar    1  UNL1        0.1948
     23 C          -0.9020    1.2258    1.4458 C.ar    1  UNL1       -0.0401
     24 C          -0.0010    0.1677   -0.5307 C.ar    1  UNL1       -0.0401
     25 CA         -6.1197    0.9099   -0.7158 C.3     1  UNL1        0.1209
     26 C          -2.3328    0.7953   -0.4528 C.ar    1  UNL1        0.0368
     27 CB         -6.6994   -0.4867   -0.9707 C.3     1  UNL1       -0.0140
     28 C          -2.1561    1.2915    0.8388 C.ar    1  UNL1       -0.0479
     29 C          -1.2551    0.2334   -1.1376 C.ar    1  UNL1       -0.0479
     30 C          -3.6405    0.8625   -1.0853 C.2     0  ACE0        0.2447
     31 CG         -6.8056   -1.4007    0.2565 C.3     1  UNL1        0.0470
     32 C          -6.9244    1.7363    0.2662 C.2     1  UNL1        0.3253
     33 CD         -7.3716   -2.7704   -0.0501 C.2     1  UNL1        0.3048
     34 H           3.4467   -0.0678    2.7202 H       1  UNL1        0.0530
     35 H           3.6283    2.3195    1.7831 H       1  UNL1        0.0480
     36 H           5.0526    1.6492    2.5785 H       1  UNL1        0.0480
     37 H           2.3997   -1.0152    0.5077 H       1  UNL1        0.0480
     38 H           2.8124    0.5501   -0.2053 H       1  UNL1        0.0480
     39 H           5.3619    2.6954    0.1970 H       1  UNL1        0.1476
     40 H           3.9092   -2.1801    2.7165 H       1  UNL1        0.0428
     41 H           5.5812   -2.5453    2.3253 H       1  UNL1        0.0428
     42 H           4.2775   -2.8907    1.1471 H       1  UNL1        0.0428
     43 H           1.5039    0.9817    2.3024 H       1  UNL1        0.1461
     44 H           8.1459   -1.8040   -1.6555 H       1  UNL1        0.1716
     45 H          -0.7763    1.6224    2.4502 H       1  UNL1        0.0636
     46 H           0.8097   -0.2791   -1.0985 H       1  UNL1        0.0636
     47 HA         -6.1150    1.4650   -1.6624 H       1  UNL1        0.0614
     48 HB1        -7.6991   -0.3834   -1.4126 H       1  UNL1        0.0294
     49 HB2        -6.0863   -0.9918   -1.7290 H       1  UNL1        0.0294
     50 H          -2.9596    1.7648    1.3954 H       1  UNL1        0.0626
     51 H          -1.3734   -0.1631   -2.1427 H       1  UNL1        0.0626
     52 H          -4.6280    0.7644    0.7618 H       1  UNL1        0.1498
     53 HG1        -7.4557   -0.9343    1.0049 H       1  UNL1        0.0378
     54 HG2        -5.8122   -1.5462    0.6951 H       1  UNL1        0.0378
     55 H           8.7140    1.4156   -2.8853 H       1  UNL1        0.1451
     56 H           9.1478   -0.2608   -2.9498 H       1  UNL1        0.1451
     57 H          -8.6900    2.5466    0.4329 H       1  UNL1        0.2951
     58 HE1        -7.8796   -4.4059    0.8818 H       1  UNL1        0.2951
@<TRIPOS>BOND
     1     1    20    2
     2     2    30    2
     3     3    32    1
     4     3    57    1
     5     4    32    2
     6     5    33    1
     7     5    58    1
     8     6    33    2
     9     7    14    1
    10     7    17    1
    11     7    19    1
    12     8    15    1
    13     8    18    1
    14     8    39    1
    15     9    16    1
    16     9    21    1
    17     9    43    1
    18    10    18   ar
    19    10    22   ar
    20    11    20   ar
    21    11    22   ar
    22    11    44    1
    23    12    25    1
    24    12    30   am
    25    12    52    1
    26    13    22    1
    27    13    55    1
    28    13    56    1
    29    14    15    1
    30    14    16    1
    31    14    34    1
    32    15    35    1
    33    15    36    1
    34    16    37    1
    35    16    38    1
    36    17    18   ar
    37    17    20   ar
    38    19    40    1
    39    19    41    1
    40    19    42    1
    41    21    23   ar
    42    21    24   ar
    43    23    28   ar
    44    23    45    1
    45    24    29   ar
    46    24    46    1
    47    25    27    1
    48    25    32    1
    49    25    47    1
    50    26    28   ar
    51    26    29   ar
    52    26    30    1
    53    27    31    1
    54    27    48    1
    55    27    49    1
    56    28    50    1
    57    29    51    1
    58    31    33    1
    59    31    53    1
    60    31    54    1
