@<TRIPOS>MOLECULE
acetylcarnitine
 31 30 0 0 0
SMALL
GASTEIGER

@<TRIPOS>ATOM
      1 O           0.1642    0.9044   -0.2317 O.3     1  UNL1       -0.4558
      2 O           2.6794   -2.5350    0.0659 O.co2   1  UNL1       -0.5497
      3 O           1.7823   -0.9934   -1.3591 O.co2   1  UNL1       -0.5497
      4 O           1.6868    1.9799    1.1329 O.2     1  UNL1       -0.2512
      5 N          -2.3644   -0.3438   -0.0391 N.4     1  UNL1        0.2395
      6 C          -1.0660   -1.0879    0.2384 C.3     1  UNL1        0.0075
      7 C           0.0175   -0.1337    0.7377 C.3     1  UNL1        0.1474
      8 C          -2.8410    0.3376    1.2355 C.3     1  UNL1       -0.0417
      9 C          -2.1276    0.7045   -1.1167 C.3     1  UNL1       -0.0417
     10 C          -3.4226   -1.3293   -0.5136 C.3     1  UNL1       -0.0417
     11 C           1.3679   -0.8092    0.9827 C.3     1  UNL1        0.0291
     12 C           2.0004   -1.5087   -0.2289 C.2     1  UNL1        0.0454
     13 C           1.0355    1.9012    0.1000 C.2     1  UNL1        0.3044
     14 C           1.0876    2.9134   -1.0040 C.3     1  UNL1        0.0332
     15 H          -0.7811   -1.5726   -0.7023 H       1  UNL1        0.0852
     16 H          -1.2770   -1.8658    0.9818 H       1  UNL1        0.0852
     17 H          -0.2879    0.3118    1.6914 H       1  UNL1        0.0792
     18 H          -2.1852    1.1739    1.4887 H       1  UNL1        0.0778
     19 H          -3.8485    0.7255    1.0532 H       1  UNL1        0.0778
     20 H          -2.8670   -0.4033    2.0400 H       1  UNL1        0.0778
     21 H          -3.0940    0.8967   -1.5987 H       1  UNL1        0.0778
     22 H          -1.8272    1.6592   -0.6788 H       1  UNL1        0.0778
     23 H          -1.4493    0.3135   -1.8812 H       1  UNL1        0.0778
     24 H          -3.0712   -1.7927   -1.4403 H       1  UNL1        0.0778
     25 H          -3.5635   -2.0855    0.2644 H       1  UNL1        0.0778
     26 H          -4.3568   -0.7870   -0.6874 H       1  UNL1        0.0778
     27 H           2.1374   -0.1521    1.3916 H       1  UNL1        0.0363
     28 H           1.2107   -1.5766    1.7540 H       1  UNL1        0.0363
     29 H           0.1173    3.4063   -1.1011 H       1  UNL1        0.0342
     30 H           1.3678    2.4260   -1.9414 H       1  UNL1        0.0342
     31 H           1.8434    3.6681   -0.7683 H       1  UNL1        0.0342
@<TRIPOS>UNITY_ATOM_ATTR
2 1
charge -1
5 1
charge 1
@<TRIPOS>BOND
     1     1     7    1
     2     1    13    1
     3     2    12   ar
     4     3    12   ar
     5     4    13    2
     6     5     6    1
     7     5     8    1
     8     5     9    1
     9     5    10    1
    10     6     7    1
    11     6    15    1
    12     6    16    1
    13     7    11    1
    14     7    17    1
    15     8    18    1
    16     8    19    1
    17     8    20    1
    18     9    21    1
    19     9    22    1
    20     9    23    1
    21    10    24    1
    22    10    25    1
    23    10    26    1
    24    11    12    1
    25    11    27    1
    26    11    28    1
    27    13    14    1
    28    14    29    1
    29    14    30    1
    30    14    31    1
