@<TRIPOS>MOLECULE
acetyl_coa
 89 91 0 0 0
SMALL
GASTEIGER

@<TRIPOS>ATOM
      1 S           1.7194   -0.9368   -3.5172 S.3     1  UNL1       -0.0869
      2 P          -5.3736    2.7120   10.7847 P.3     1  UNL1        0.4728
      3 P          -4.2382   -3.8346    8.6303 P.3     1  UNL1        0.4835
      4 P          -5.5029   -4.3060    5.9656 P.3     1  UNL1        0.4834
      5 O          -7.0368   -1.5059    8.7049 O.3     1  UNL1       -0.3456
      6 O          -4.8080    1.2529   10.0473 O.3     1  UNL1       -0.2780
      7 O          -6.6295    1.2974    7.6597 O.3     1  UNL1       -0.3846
      8 O          -5.2970   -3.4336    9.7621 O.3     1  UNL1       -0.2837
      9 O          -6.0541    3.1632    9.3946 O.3     1  UNL1       -0.3026
     10 O          -6.5728    1.9492   11.5786 O.3     1  UNL1       -0.3026
     11 O          -5.1467   -4.4962    7.5273 O.3     1  UNL1       -0.1861
     12 O          -4.1067   -3.2896    5.8633 O.3     1  UNL1       -0.2857
     13 O          -5.8798    4.0180   11.4447 O.2     1  UNL1       -0.2275
     14 O          -2.8754   -5.8452    1.7251 O.3     1  UNL1       -0.3820
     15 O          -3.5331   -5.1212    9.2785 O.3     1  UNL1       -0.3022
     16 O          -3.2449   -2.7805    8.2738 O.2     1  UNL1       -0.2269
     17 O          -6.3223   -2.8996    6.0023 O.3     1  UNL1       -0.3022
     18 O          -0.1670   -6.3118    3.2217 O.2     1  UNL1       -0.2730
     19 O          -6.7525   -5.2157    6.0571 O.2     1  UNL1       -0.2269
     20 O          -0.2936   -2.3468   -0.0286 O.2     1  UNL1       -0.2758
     21 O           0.1173   -0.9347   -5.6025 O.2     1  UNL1       -0.2855
     22 N          -9.0796   -0.5979    9.6619 N.ar    1  UNL1       -0.2855
     23 N         -10.4109   -1.5714   11.1876 N.ar    1  UNL1       -0.2306
     24 N         -10.3798    1.4433    9.2654 N.ar    1  UNL1       -0.2159
     25 N         -12.3132    1.5746   10.7446 N.ar    1  UNL1       -0.2188
     26 N         -12.8157   -0.0526   12.3748 N.pl3   1  UNL1       -0.3413
     27 N          -0.4434   -4.5035    1.8574 N.am    1  UNL1       -0.3127
     28 N          -0.3128   -3.0548   -2.2121 N.am    1  UNL1       -0.3145
     29 C          -5.9562    0.3210    9.8332 C.3     1  UNL1        0.1283
     30 C          -7.1138    0.8381    8.9409 C.3     1  UNL1        0.1294
     31 C          -5.7348   -1.0678    9.2395 C.3     1  UNL1        0.1142
     32 C          -7.9850   -0.3869    8.7145 C.3     1  UNL1        0.1667
     33 C          -5.3105   -2.1146   10.2916 C.3     1  UNL1        0.0879
     34 C         -10.1376    0.2657    9.8678 C.ar    1  UNL1        0.1674
     35 C          -9.3434   -1.7137   10.4178 C.ar    1  UNL1        0.1004
     36 C         -10.9055   -0.3290   10.8563 C.ar    1  UNL1        0.1473
     37 C          -3.3532   -4.3416    3.6228 C.3     1  UNL1        0.0235
     38 C          -2.4038   -5.4525    3.0420 C.3     1  UNL1        0.1380
     39 C          -3.0765   -4.0667    5.1578 C.3     1  UNL1        0.0670
     40 C          -3.3260   -2.9764    2.9260 C.3     1  UNL1       -0.0549
     41 C          -4.7852   -4.9089    3.3476 C.3     1  UNL1       -0.0549
     42 C         -12.0167    0.3927   11.3321 C.ar    1  UNL1        0.1472
     43 C          -0.8817   -5.3981    2.8009 C.2     1  UNL1        0.2423
     44 C         -11.5003    2.0177    9.7596 C.ar    1  UNL1        0.1205
     45 C           0.7110   -4.7549    1.0001 C.3     1  UNL1        0.0199
     46 C           0.3665   -4.6196   -0.4868 C.3     1  UNL1        0.0395
     47 C          -0.0955   -3.2201   -0.8606 C.2     1  UNL1        0.2145
     48 C          -0.8621   -1.8083   -2.7475 C.3     1  UNL1        0.0210
     49 C           0.0927   -0.6100   -2.7549 C.3     1  UNL1        0.0165
     50 C           1.2585   -1.1221   -5.2033 C.2     1  UNL1        0.1864
     51 C           2.3827   -1.5476   -6.1027 C.3     1  UNL1        0.0044
     52 H          -6.3518    0.0780   10.8259 H       1  UNL1        0.0656
     53 H          -7.6962    1.6463    9.3872 H       1  UNL1        0.0666
     54 H          -5.0370   -1.0368    8.4010 H       1  UNL1        0.0647
     55 H          -8.4565   -0.3682    7.7237 H       1  UNL1        0.0866
     56 H          -6.0621   -2.1525   11.0894 H       1  UNL1        0.0592
     57 H          -4.3443   -1.8852   10.7458 H       1  UNL1        0.0592
     58 H          -6.2107    0.5654    7.1814 H       1  UNL1        0.2101
     59 H          -8.7312   -2.6045   10.3724 H       1  UNL1        0.1030
     60 H          -2.5522   -6.3356    3.6817 H       1  UNL1        0.0696
     61 H          -2.9623   -5.0158    5.6974 H       1  UNL1        0.0572
     62 H          -2.1342   -3.5213    5.2790 H       1  UNL1        0.0572
     63 H          -3.5669   -3.0496    1.8625 H       1  UNL1        0.0237
     64 H          -4.0821   -2.3176    3.3793 H       1  UNL1        0.0237
     65 H          -2.3622   -2.4758    3.0460 H       1  UNL1        0.0237
     66 H          -4.9437   -5.1779    2.2981 H       1  UNL1        0.0237
     67 H          -4.9602   -5.8231    3.9290 H       1  UNL1        0.0237
     68 H          -5.5728   -4.1773    3.5439 H       1  UNL1        0.0237
     69 H          -5.9893    4.1296    9.2911 H       1  UNL1        0.2220
     70 H          -6.8905    2.6034   12.2370 H       1  UNL1        0.2220
     71 H         -11.7923    2.9627    9.3076 H       1  UNL1        0.1048
     72 H          -2.4001   -6.6658    1.4932 H       1  UNL1        0.2105
     73 H          -2.8628   -5.5091    8.6910 H       1  UNL1        0.2220
     74 H         -12.7332   -1.0467   12.5590 H       1  UNL1        0.1438
     75 H         -13.7373    0.3592   12.3790 H       1  UNL1        0.1438
     76 H          -0.9888   -3.6736    1.6484 H       1  UNL1        0.1488
     77 H           1.0809   -5.7733    1.1665 H       1  UNL1        0.0467
     78 H           1.5037   -4.0570    1.2862 H       1  UNL1        0.0467
     79 H          -6.2645   -2.4838    6.8801 H       1  UNL1        0.2220
     80 H          -0.4372   -5.3185   -0.7571 H       1  UNL1        0.0374
     81 H           1.2513   -4.8588   -1.0946 H       1  UNL1        0.0374
     82 H          -0.2154   -3.8292   -2.8432 H       1  UNL1        0.1487
     83 H          -1.7521   -1.5511   -2.1657 H       1  UNL1        0.0470
     84 H          -1.2119   -2.0347   -3.7675 H       1  UNL1        0.0470
     85 H           0.2864   -0.2926   -1.7238 H       1  UNL1        0.0396
     86 H          -0.3790    0.2451   -3.2559 H       1  UNL1        0.0396
     87 H           3.2240   -0.8524   -6.0125 H       1  UNL1        0.0315
     88 H           2.7013   -2.5622   -5.8478 H       1  UNL1        0.0315
     89 H           2.0412   -1.5377   -7.1400 H       1  UNL1        0.0315
@<TRIPOS>BOND
     1     1    49    1
     2     1    50    1
     3     2     6    1
     4     2     9    1
     5     2    10    1
     6     2    13    2
     7     3     8    1
     8     3    11    1
     9     3    15    1
    10     3    16    2
    11     4    11    1
    12     4    12    1
    13     4    17    1
    14     4    19    2
    15     5    31    1
    16     5    32    1
    17    29     6    1
    18    30     7    1
    19     7    58    1
    20     8    33    1
    21     9    69    1
    22    10    70    1
    23    12    39    1
    24    14    72    1
    25    15    73    1
    26    17    79    1
    27    18    43    2
    28    20    47    2
    29    21    50    2
    30    32    22    1
    31    22    34   ar
    32    22    35   ar
    33    23    35   ar
    34    23    36   ar
    35    24    34   ar
    36    24    44   ar
    37    25    42   ar
    38    25    44   ar
    39    26    42    1
    40    26    74    1
    41    26    75    1
    42    27    43   am
    43    27    45    1
    44    27    76    1
    45    28    47   am
    46    28    48    1
    47    28    82    1
    48    29    30    1
    49    29    31    1
    50    29    52    1
    51    30    32    1
    52    30    53    1
    53    32    55    1
    54    33    56    1
    55    33    57    1
    56    34    36   ar
    57    35    59    1
    58    36    42   ar
    59    37    39    1
    60    37    40    1
    61    37    41    1
    62    38    43    1
    63    38    60    1
    64    39    61    1
    65    39    62    1
    66    40    63    1
    67    40    64    1
    68    40    65    1
    69    41    66    1
    70    41    67    1
    71    41    68    1
    72    44    71    1
    73    45    46    1
    74    45    77    1
    75    45    78    1
    76    46    47    1
    77    46    80    1
    78    46    81    1
    79    48    49    1
    80    48    83    1
    81    48    84    1
    82    49    85    1
    83    49    86    1
    84    50    51    1
    85    51    87    1
    86    51    88    1
    87    51    89    1
    88    31    54    1
    89    31    33    1
    90    38    37    1
    91    38    14    1
