@<TRIPOS>MOLECULE
adenosylcobalamin
 210 224 0 0 0
SMALL
GASTEIGER

@<TRIPOS>ATOM
      1 P          40.3810   42.9900   53.1220 P.3     1  UNL1        0.0000
      2 CO         43.2700   44.9170   44.2540 Co.oh   1  UNL1        0.0000
      3 C          45.5710   43.4460   45.4020 C.3     1  UNL1        0.0000
      4 C          47.0920   43.1560   44.8430 C.3     1  UNL1        0.0000
      5 C          47.4800   44.5990   44.3280 C.3     1  UNL1        0.0000
      6 C          46.1390   45.1740   43.8650 C.2     1  UNL1        0.0000
      7 C          45.9590   46.1250   42.8240 C.2     1  UNL1        0.0000
      8 C          44.8430   47.0130   42.8310 C.2     1  UNL1        0.0000
      9 C          44.5970   48.3830   42.1370 C.3     1  UNL1        0.0000
     10 C          43.3410   48.9160   42.9200 C.3     1  UNL1        0.0000
     11 C          42.7500   47.5890   43.3670 C.2     1  UNL1        0.0000
     12 N          37.5090   46.7850   36.7050 N.pl3   1  UNL1        0.0000
     13 C          47.1910   49.1050   46.6570 C.3     1  UNL1        0.0000
     14 C          41.4110   47.4330   43.6330 C.2     1  UNL1        0.0000
     15 C          40.7320   46.2970   44.0600 C.2     1  UNL1        0.0000
     16 C          39.2140   46.2210   44.2500 C.3     1  UNL1        0.0000
     17 C          39.0820   44.8190   44.9150 C.3     1  UNL1        0.0000
     18 C          40.4510   44.1630   44.6700 C.2     1  UNL1        0.0000
     19 C          40.7840   42.7890   44.7170 C.2     1  UNL1        0.0000
     20 C          42.0670   42.3490   45.2040 C.2     1  UNL1        0.0000
     21 C          42.5210   41.0490   45.9280 C.3     1  UNL1        0.0000
     22 C          44.0670   41.2930   46.1400 C.3     1  UNL1        0.0000
     23 C          44.4050   42.4520   45.1570 C.3     1  UNL1        0.0000
     24 C          40.4850   43.0640   40.4180 C.3     1  UNL1        0.0000
     25 N          36.8040   44.6280   37.1720 N.ar    1  UNL1        0.0000
     26 C          46.3380   49.5030   49.5260 C.3     1  UNL1        0.0000
     27 N          42.5400   46.4040   48.3860 N.pl3   1  UNL1        0.0000
     28 C          39.3820   39.9000   51.1490 C.3     1  UNL1        0.0000
     29 C          41.7830   46.2830   49.6260 C.3     1  UNL1        0.0000
     30 C          45.4850   43.9430   46.8530 C.3     1  UNL1        0.0000
     31 N          45.1470   44.5760   44.5180 N.pl3   1  UNL1       -1.0000
     32 N          43.6770   46.6090   43.4650 N.2     1  UNL1        0.0000
     33 N          41.3720   45.1080   44.2780 N.2     1  UNL1        0.0000
     34 N          43.1020   43.1670   45.0270 N.2     1  UNL1        0.0000
     35 C          48.0850   42.5890   45.8860 C.3     1  UNL1        0.0000
     36 C          47.1410   42.1850   43.5960 C.3     1  UNL1        0.0000
     37 C          48.4650   41.9300   42.8790 C.2     1  UNL1        0.0000
     38 O          48.7770   42.6350   41.9120 O.2     1  UNL1        0.0000
     39 N          49.2370   40.9120   43.2600 N.am    1  UNL1        0.0000
     40 C          41.5450   42.2010   39.7190 C.3     1  UNL1        0.0000
     41 C          42.2850   45.8150   47.1910 C.2     1  UNL1        0.0000
     42 C          37.0000   43.4740   37.8190 C.ar    1  UNL1        0.0000
     43 C          38.9180   41.0260   52.0710 C.3     1  UNL1        0.0000
     44 O          40.7100   43.4780   51.6250 O.3     1  UNL1        0.0000
     45 C          42.1750   45.0950   50.4950 C.3     1  UNL1        0.0000
     46 C          48.2090   45.6600   45.2150 C.3     1  UNL1        0.0000
     47 C          49.7310   45.7710   45.0440 C.3     1  UNL1        0.0000
     48 C          50.3610   46.8130   45.9490 C.2     1  UNL1        0.0000
     49 O          50.5610   47.9550   45.5220 O.2     1  UNL1        0.0000
     50 N          50.6830   46.4590   47.1880 N.am    1  UNL1        0.0000
     51 C          47.0300   46.2150   41.7340 C.3     1  UNL1        0.0000
     52 C          45.8260   49.3210   42.2270 C.3     1  UNL1        0.0000
     53 C          44.1640   48.1960   40.6310 C.3     1  UNL1        0.0000
     54 C          43.9220   49.4130   39.7470 C.2     1  UNL1        0.0000
     55 O          42.7950   49.9210   39.7120 O.2     1  UNL1        0.0000
     56 C          42.8530   42.7250   40.3310 C.3     1  UNL1        0.0000
     57 N          37.9800   43.1330   38.6500 N.ar    1  UNL1        0.0000
     58 N          43.1670   46.1000   46.2610 N.2     1  UNL1        0.0000
     59 C          37.8000   40.6450   53.0170 C.3     1  UNL1        0.0000
     60 O          40.0660   41.4580   52.8530 O.3     1  UNL1        0.0000
     61 C          40.8850   44.8530   51.2970 C.3     1  UNL1        0.0000
     62 N          44.9170   49.8920   39.0010 N.am    1  UNL1        0.0000
     63 C          43.4810   49.8570   44.1530 C.3     1  UNL1        0.0000
     64 C          42.3900   50.9250   44.3110 C.3     1  UNL1        0.0000
     65 C          42.5850   51.8010   45.5330 C.2     1  UNL1        0.0000
     66 O          43.1770   52.8810   45.4260 O.2     1  UNL1        0.0000
     67 N          42.1060   51.3740   46.6960 N.am    1  UNL1        0.0000
     68 C          38.5270   46.2250   42.8660 C.3     1  UNL1        0.0000
     69 C          38.6770   47.4300   45.0580 C.3     1  UNL1        0.0000
     70 C          38.6810   44.6210   46.4070 C.3     1  UNL1        0.0000
     71 C          37.1720   44.5040   46.6760 C.3     1  UNL1        0.0000
     72 C          42.4170   43.0990   41.7620 C.3     1  UNL1        0.0000
     73 C          45.2160   47.6050   46.3950 C.ar    1  UNL1        0.0000
     74 C          38.8530   44.1420   38.8090 C.ar    1  UNL1        0.0000
     75 O          41.6290   43.0690   53.9330 O.co2   1  UNL1       -1.0000
     76 C          39.7660   45.2830   50.3390 C.3     1  UNL1        0.0000
     77 C          36.7880   44.4340   48.1440 C.2     1  UNL1        0.0000
     78 O          37.1280   43.4530   48.8170 O.2     1  UNL1        0.0000
     79 N          36.0770   45.4250   48.6690 N.am    1  UNL1        0.0000
     80 C          39.7120   41.7640   44.3400 C.3     1  UNL1        0.0000
     81 C          42.2060   39.7730   45.0920 C.3     1  UNL1        0.0000
     82 C          41.7290   41.0470   47.2720 C.3     1  UNL1        0.0000
     83 C          42.0070   39.9680   48.3370 C.3     1  UNL1        0.0000
     84 C          40.7830   39.5510   49.1240 C.2     1  UNL1        0.0000
     85 O          40.1050   38.5940   48.7180 O.2     1  UNL1        0.0000
     86 N          40.4770   40.2350   50.2420 N.am    1  UNL1        0.0000
     87 C          43.2550   44.1730   42.4710 C.2     1  UNL1       -1.0000
     88 C          45.9550   48.4300   47.2240 C.ar    1  UNL1        0.0000
     89 C          38.7840   45.3860   38.2100 C.ar    1  UNL1        0.0000
     90 O          39.1690   43.6910   53.6390 O.2     1  UNL1        0.0000
     91 C          38.6220   46.0630   50.9540 C.3     1  UNL1        0.0000
     92 C          45.0770   40.1180   46.0320 C.3     1  UNL1        0.0000
     93 C          45.0970   39.0990   47.1630 C.2     1  UNL1        0.0000
     94 O          44.6160   37.9730   46.9970 O.2     1  UNL1        0.0000
     95 N          45.6550   39.4660   48.3150 N.am    1  UNL1        0.0000
     96 C          37.6980   45.6320   37.3480 C.ar    1  UNL1        0.0000
     97 O          41.0920   43.6080   41.5860 O.3     1  UNL1        0.0000
     98 C          45.5560   48.6160   48.5820 C.ar    1  UNL1        0.0000
     99 O          40.3970   46.1030   49.3290 O.3     1  UNL1        0.0000
    100 N          39.8540   46.1780   38.6010 N.ar    1  UNL1        0.0000
    101 O          41.2900   40.8320   39.9680 O.3     1  UNL1        0.0000
    102 C          44.4210   47.9750   49.0620 C.ar    1  UNL1        0.0000
    103 O          42.5700   43.9740   49.7270 O.3     1  UNL1        0.0000
    104 C          40.5350   45.4080   39.4140 C.ar    1  UNL1        0.0000
    105 O          43.8740   41.7340   40.2930 O.3     1  UNL1        0.0000
    106 C          43.6860   47.1560   48.2110 C.ar    1  UNL1        0.0000
    107 O          37.7650   45.2300   51.7180 O.3     1  UNL1        0.0000
    108 N          39.9860   44.1630   39.5870 N.ar    1  UNL1        0.0000
    109 C          44.0690   46.9740   46.8770 C.ar    1  UNL1        0.0000
    110 H          48.0290   44.4780   43.5260 H       1  UNL1        0.0000
    111 H          42.6910   49.3230   42.2900 H       1  UNL1        0.0000
    112 H          36.8130   46.8890   36.1750 H       1  UNL1        0.0000
    113 H          38.0820   47.4450   36.8100 H       1  UNL1        0.0000
    114 H          47.1220   50.0690   46.7660 H       1  UNL1        0.0000
    115 H          47.2790   48.9050   45.7100 H       1  UNL1        0.0000
    116 H          47.9830   48.7820   47.1200 H       1  UNL1        0.0000
    117 H          40.8850   48.1990   43.4700 H       1  UNL1        0.0000
    118 H          38.4360   44.2930   44.3760 H       1  UNL1        0.0000
    119 H          44.1740   41.6600   47.0570 H       1  UNL1        0.0000
    120 H          39.7060   42.4750   40.6970 H       1  UNL1        0.0000
    121 H          45.8900   49.5540   50.3880 H       1  UNL1        0.0000
    122 H          46.4040   50.4010   49.1590 H       1  UNL1        0.0000
    123 H          47.2300   49.1390   49.6580 H       1  UNL1        0.0000
    124 H          38.6110   39.6050   50.6090 H       1  UNL1        0.0000
    125 H          39.6670   39.1360   51.7040 H       1  UNL1        0.0000
    126 H          41.8900   47.1210   50.1520 H       1  UNL1        0.0000
    127 H          44.5620   44.1010   47.1070 H       1  UNL1        0.0000
    128 H          45.9740   44.7720   46.9500 H       1  UNL1        0.0000
    129 H          45.8580   43.2800   47.4620 H       1  UNL1        0.0000
    130 H          47.8310   41.6820   46.1280 H       1  UNL1        0.0000
    131 H          48.0910   43.1380   46.6880 H       1  UNL1        0.0000
    132 H          48.9870   42.5780   45.5160 H       1  UNL1        0.0000
    133 H          46.5010   42.5200   42.9180 H       1  UNL1        0.0000
    134 H          46.8030   41.3010   43.8840 H       1  UNL1        0.0000
    135 H          50.0120   40.7680   42.8530 H       1  UNL1        0.0000
    136 H          48.9800   40.3670   43.9140 H       1  UNL1        0.0000
    137 H          41.5330   42.3800   38.7480 H       1  UNL1        0.0000
    138 H          41.5570   45.2400   47.0690 H       1  UNL1        0.0000
    139 H          36.3490   42.8060   37.6630 H       1  UNL1        0.0000
    140 H          38.6110   41.7670   51.4840 H       1  UNL1        0.0000
    141 H          42.8980   45.3610   51.1180 H       1  UNL1        0.0000
    142 H          48.0230   45.4740   46.1590 H       1  UNL1        0.0000
    143 H          47.8250   46.5450   45.0180 H       1  UNL1        0.0000
    144 H          49.9290   45.9960   44.1240 H       1  UNL1        0.0000
    145 H          50.1320   44.9100   45.2330 H       1  UNL1        0.0000
    146 H          51.0520   47.0580   47.7280 H       1  UNL1        0.0000
    147 H          50.5370   45.6350   47.4920 H       1  UNL1        0.0000
    148 H          47.2880   45.3220   41.4560 H       1  UNL1        0.0000
    149 H          47.8070   46.6820   42.0810 H       1  UNL1        0.0000
    150 H          46.6890   46.6910   40.9650 H       1  UNL1        0.0000
    151 H          45.5550   50.2430   42.0460 H       1  UNL1        0.0000
    152 H          46.4930   49.0600   41.5670 H       1  UNL1        0.0000
    153 H          46.2200   49.2630   43.1180 H       1  UNL1        0.0000
    154 H          43.3530   47.6630   40.6130 H       1  UNL1        0.0000
    155 H          44.8430   47.6630   40.1950 H       1  UNL1        0.0000
    156 H          43.1570   43.5350   39.8410 H       1  UNL1        0.0000
    157 H          37.5640   41.4130   53.5650 H       1  UNL1        0.0000
    158 H          38.0920   39.9170   53.5920 H       1  UNL1        0.0000
    159 H          37.0220   40.3620   52.5070 H       1  UNL1        0.0000
    160 H          40.9020   45.4070   52.1160 H       1  UNL1        0.0000
    161 H          44.7810   50.5980   38.4810 H       1  UNL1        0.0000
    162 H          45.7220   49.5130   39.0200 H       1  UNL1        0.0000
    163 H          44.3420   50.3180   44.1220 H       1  UNL1        0.0000
    164 H          43.4770   49.3090   44.9670 H       1  UNL1        0.0000
    165 H          41.5280   50.4890   44.3730 H       1  UNL1        0.0000
    166 H          42.3830   51.4870   43.5220 H       1  UNL1        0.0000
    167 H          42.2130   51.8770   47.4200 H       1  UNL1        0.0000
    168 H          41.6810   50.5960   46.7700 H       1  UNL1        0.0000
    169 H          37.5630   46.0940   42.9720 H       1  UNL1        0.0000
    170 H          38.8920   45.5040   42.3150 H       1  UNL1        0.0000
    171 H          38.6890   47.0790   42.4170 H       1  UNL1        0.0000
    172 H          38.7560   48.2500   44.5310 H       1  UNL1        0.0000
    173 H          39.1960   47.5310   45.8780 H       1  UNL1        0.0000
    174 H          37.7370   47.2850   45.2860 H       1  UNL1        0.0000
    175 H          39.0390   45.3640   46.9420 H       1  UNL1        0.0000
    176 H          39.1060   43.7980   46.7420 H       1  UNL1        0.0000
    177 H          36.8440   43.7060   46.2370 H       1  UNL1        0.0000
    178 H          36.7250   45.2630   46.2720 H       1  UNL1        0.0000
    179 H          42.3990   42.2910   42.3390 H       1  UNL1        0.0000
    180 H          45.4790   47.4830   45.5010 H       1  UNL1        0.0000
    181 H          39.3940   44.4770   49.9010 H       1  UNL1        0.0000
    182 H          35.8490   45.3850   49.5260 H       1  UNL1        0.0000
    183 H          35.8210   46.1330   48.1940 H       1  UNL1        0.0000
    184 H          38.9250   42.2010   43.9840 H       1  UNL1        0.0000
    185 H          39.4650   41.2500   45.1240 H       1  UNL1        0.0000
    186 H          40.0640   41.1670   43.6620 H       1  UNL1        0.0000
    187 H          42.5890   38.9860   45.5210 H       1  UNL1        0.0000
    188 H          42.5810   39.8680   44.1960 H       1  UNL1        0.0000
    189 H          41.2480   39.6420   45.0260 H       1  UNL1        0.0000
    190 H          40.7760   41.0030   47.0580 H       1  UNL1        0.0000
    191 H          41.8740   41.9140   47.7030 H       1  UNL1        0.0000
    192 H          42.6760   40.3010   48.9520 H       1  UNL1        0.0000
    193 H          42.3740   39.1830   47.9130 H       1  UNL1        0.0000
    194 H          40.9780   40.9300   50.4380 H       1  UNL1        0.0000
    195 H          44.1480   43.8760   42.3930 H       1  UNL1        0.0000
    196 H          43.1570   44.9350   41.9220 H       1  UNL1        0.0000
    197 H          38.1050   46.4860   50.2390 H       1  UNL1        0.0000
    198 H          38.9730   46.7780   51.5260 H       1  UNL1        0.0000
    199 H          45.9690   40.4910   45.9730 H       1  UNL1        0.0000
    200 H          44.9280   39.6440   45.1940 H       1  UNL1        0.0000
    201 H          45.6820   38.8950   48.9940 H       1  UNL1        0.0000
    202 H          46.0020   40.2790   48.4130 H       1  UNL1        0.0000
    203 H          41.7960   40.3500   39.5010 H       1  UNL1        0.0000
    204 H          44.1520   48.1030   49.9680 H       1  UNL1        0.0000
    205 H          42.8980   43.3780   50.2220 H       1  UNL1        0.0000
    206 H          41.3280   45.6820   39.8430 H       1  UNL1        0.0000
    207 H          44.6140   42.0620   40.5230 H       1  UNL1        0.0000
    208 H          37.1420   45.7000   52.0430 H       1  UNL1        0.0000
    209 H          41.3966   43.2820   54.8503 H       1 UNL1 0.0000
    210 H          44.5820   42.0210   44.2900 H       1  UNL1        0.0000
@<TRIPOS>UNITY_ATOM_ATTR
31 1
charge -1
75 1
charge -1
87 1
charge -1
@<TRIPOS>BOND
     1     1    44    1
     2     1    60    1
     3     1    75    1
     4     1    90    2
     5     2    31    1
     6     2    32    1
     7     2    34    1
     8     2    58    1
     9     3     4    1
    10     3    23    1
    11     3    30    1
    12     3    31    1
    13     4     5    1
    14     4    35    1
    15     4    36    1
    16     5     6    1
    17     5    46    1
    18     5   110    1
    19     6     7    2
    20     6    31    1
    21     7     8    1
    22     7    51    1
    23     8     9    1
    24     8    32    2
    25     9    10    1
    26     9    52    1
    27     9    53    1
    28    10    11    1
    29    10    63    1
    30    10   111    1
    31    11    14    2
    32    11    32    1
    33    12    96    1
    34    12   112    1
    35    12   113    1
    36    13    88    1
    37    13   114    1
    38    13   115    1
    39    13   116    1
    40    14    15    1
    41    14   117    1
    42    15    16    1
    43    15    33    2
    44    16    17    1
    45    16    68    1
    46    16    69    1
    47    17    18    1
    48    17    70    1
    49    17   118    1
    50    18    19    2
    51    18    33    1
    52    19    20    1
    53    19    80    1
    54    20    21    1
    55    20    34    2
    56    21    22    1
    57    21    81    1
    58    21    82    1
    59    22    23    1
    60    22    92    1
    61    22   119    1
    62    23    34    1
    63    23   210    1
    64    24    40    1
    65    24    97    1
    66    24   108    1
    67    24   120    1
    68    25    42   ar
    69    25    96   ar
    70    26    98    1
    71    26   121    1
    72    26   122    1
    73    26   123    1
    74    27    29    1
    75    27    41    1
    76    27   106    1
    77    28    43    1
    78    28    86    1
    79    28   124    1
    80    28   125    1
    81    29    45    1
    82    29    99    1
    83    29   126    1
    84    30   127    1
    85    30   128    1
    86    30   129    1
    87    33     2    1
    88    35   130    1
    89    35   131    1
    90    35   132    1
    91    36    37    1
    92    36   133    1
    93    36   134    1
    94    37    38    2
    95    37    39   am
    96    39   135    1
    97    39   136    1
    98    40    56    1
    99    40   101    1
   100    40   137    1
   101    41    58    2
   102    41   138    1
   103    42    57   ar
   104    42   139    1
   105    43    59    1
   106    43    60    1
   107    43   140    1
   108    44    61    1
   109    45    61    1
   110    45   103    1
   111    45   141    1
   112    46    47    1
   113    46   142    1
   114    46   143    1
   115    47    48    1
   116    47   144    1
   117    47   145    1
   118    48    49    2
   119    48    50   am
   120    50   146    1
   121    50   147    1
   122    51   148    1
   123    51   149    1
   124    51   150    1
   125    52   151    1
   126    52   152    1
   127    52   153    1
   128    53    54    1
   129    53   154    1
   130    53   155    1
   131    54    55    2
   132    54    62   am
   133    56    72    1
   134    56   105    1
   135    56   156    1
   136    57    74   ar
   137    58   109    1
   138    59   157    1
   139    59   158    1
   140    59   159    1
   141    61    76    1
   142    61   160    1
   143    62   161    1
   144    62   162    1
   145    63    64    1
   146    63   163    1
   147    63   164    1
   148    64    65    1
   149    64   165    1
   150    64   166    1
   151    65    66    2
   152    65    67   am
   153    67   167    1
   154    67   168    1
   155    68   169    1
   156    68   170    1
   157    68   171    1
   158    69   172    1
   159    69   173    1
   160    69   174    1
   161    70    71    1
   162    70   175    1
   163    70   176    1
   164    71    77    1
   165    71   177    1
   166    71   178    1
   167    72    87    1
   168    72    97    1
   169    72   179    1
   170    73    88   ar
   171    73   109   ar
   172    73   180    1
   173    74    89   ar
   174    74   108   ar
   175    75   209    1
   176    76    91    1
   177    76    99    1
   178    76   181    1
   179    77    78    2
   180    77    79   am
   181    79   182    1
   182    79   183    1
   183    80   184    1
   184    80   185    1
   185    80   186    1
   186    81   187    1
   187    81   188    1
   188    81   189    1
   189    82    83    1
   190    82   190    1
   191    82   191    1
   192    83    84    1
   193    83   192    1
   194    83   193    1
   195    84    85    2
   196    84    86   am
   197    86   194    1
   198    87     2    1
   199    87   195    1
   200    87   196    1
   201    88    98   ar
   202    89    96   ar
   203    89   100   ar
   204    91   107    1
   205    91   197    1
   206    91   198    1
   207    92    93    1
   208    92   199    1
   209    92   200    1
   210    93    94    2
   211    93    95   am
   212    95   201    1
   213    95   202    1
   214    98   102   ar
   215   100   104   ar
   216   101   203    1
   217   102   106   ar
   218   102   204    1
   219   103   205    1
   220   104   108   ar
   221   104   206    1
   222   105   207    1
   223   106   109   ar
   224   107   208    1
