@<TRIPOS>MOLECULE
bacteriochlorophyll_a
 140 148 0 0 0
SMALL
GASTEIGER

@<TRIPOS>ATOM
      1 MG         -2.7670    0.7430    0.1520 Mg      1  UNL1        0.0000
      2 C          -1.7020   -2.2110   -1.3250 C.2     1  UNL1        0.0000
      3 C          -4.1760   -1.1110    2.6560 C.2     1  UNL1        0.0000
      4 C          -3.9110    3.6640    1.5270 C.2     1  UNL1        0.0000
      5 C          -1.3090    2.6070   -2.4860 C.2     1  UNL1        0.0000
      6 N          -2.8770   -1.3540    0.5960 N.2     1  UNL1        0.0000
      7 C          -2.2990   -2.4110   -0.0850 C.2     1  UNL1        0.0000
      8 C          -2.3240   -3.6980    0.7190 C.3     1  UNL1        0.0000
      9 C          -3.4950   -3.3920    1.7060 C.3     1  UNL1        0.0000
     10 C          -3.5170   -1.8650    1.6710 C.2     1  UNL1        0.0000
     11 C          -4.8290   -4.0290    1.2980 C.3     1  UNL1        0.0000
     12 C          -0.9570   -3.9810    1.3760 C.3     1  UNL1        0.0000
     13 C          -0.6840   -5.4340    1.7850 C.3     1  UNL1        0.0000
     14 C           0.4510   -6.0730    1.0390 C.2     1  UNL1        0.0000
     15 O           0.3220   -6.8440    0.1140 O.2     1  UNL1        0.0000
     16 O           1.6480   -5.6730    1.5330 O.3     1  UNL1        0.0000
     17 N          -3.8890    1.2110    1.8720 N.pl3   1  UNL1       -1.0000
     18 C          -4.3950    0.3180    2.7560 C.2     1  UNL1        0.0000
     19 C          -5.1390    0.9830    3.7280 C.2     1  UNL1        0.0000
     20 C          -5.1540    2.3710    3.4110 C.2     1  UNL1        0.0000
     21 C          -4.3020    2.4780    2.2750 C.2     1  UNL1        0.0000
     22 C          -5.8970    0.3010    4.8350 C.3     1  UNL1        0.0000
     23 C          -5.7170    3.5490    4.0980 C.2     1  UNL1        0.0000
     24 O          -6.1680    4.4950    3.4580 O.2     1  UNL1        0.0000
     25 C          -5.6030    3.7230    5.5860 C.3     1  UNL1        0.0000
     26 N          -2.6110    2.7710   -0.3830 N.2     1  UNL1        0.0000
     27 C          -3.1980    3.7830    0.3230 C.2     1  UNL1        0.0000
     28 C          -3.0490    5.1280   -0.3880 C.3     1  UNL1        0.0000
     29 C          -1.8810    4.8470   -1.3600 C.3     1  UNL1        0.0000
     30 C          -1.9310    3.3240   -1.4480 C.2     1  UNL1        0.0000
     31 C          -4.3510    5.6150   -1.0330 C.3     1  UNL1        0.0000
     32 C          -0.4640    5.3760   -0.9270 C.3     1  UNL1        0.0000
     33 C           0.3570    5.9930   -2.0530 C.3     1  UNL1        0.0000
     34 N          -1.6910    0.3670   -1.5740 N.pl3   1  UNL1       -1.0000
     35 C          -1.1990    1.1780   -2.5850 C.2     1  UNL1        0.0000
     36 C          -0.6440    0.3620   -3.5970 C.2     1  UNL1        0.0000
     37 C          -0.8150   -0.9810   -3.1660 C.2     1  UNL1        0.0000
     38 C          -1.4510   -0.9300   -1.9370 C.2     1  UNL1        0.0000
     39 C          -0.0040    0.7840   -4.8790 C.3     1  UNL1        0.0000
     40 C          -0.5800   -2.3900   -3.5010 C.2     1  UNL1        0.0000
     41 O          -0.0240   -2.8940   -4.4660 O.2     1  UNL1        0.0000
     42 C          -1.2240   -3.2440   -2.3370 C.3     1  UNL1        0.0000
     43 C          -2.3550   -4.0930   -2.8960 C.2     1  UNL1        0.0000
     44 O          -2.3530   -5.2950   -2.8660 O.2     1  UNL1        0.0000
     45 O          -3.3420   -3.3370   -3.4150 O.3     1  UNL1        0.0000
     46 C          -4.5030   -4.0070   -3.9740 C.3     1  UNL1        0.0000
     47 C           2.9360   -6.0720    0.9930 C.3     1  UNL1        0.0000
     48 C           3.2830   -5.2190   -0.1880 C.2     1  UNL1        0.0000
     49 C           3.6130   -3.9190   -0.2340 C.2     1  UNL1        0.0000
     50 C           3.7330   -2.9670    0.9380 C.3     1  UNL1        0.0000
     51 C           3.8930   -3.2890   -1.5890 C.3     1  UNL1        0.0000
     52 C           5.3080   -3.5240   -2.1400 C.3     1  UNL1        0.0000
     53 C           6.4010   -2.5100   -1.7340 C.3     1  UNL1        0.0000
     54 C           6.6570   -1.3370   -2.7420 C.3     1  UNL1        0.0000
     55 C           7.9880   -1.5230   -3.5040 C.3     1  UNL1        0.0000
     56 C           6.5280    0.0990   -2.1420 C.3     1  UNL1        0.0000
     57 C           5.1880    0.8060   -2.4230 C.3     1  UNL1        0.0000
     58 C           4.9090    2.0930   -1.6120 C.3     1  UNL1        0.0000
     59 C           3.5740    2.1100   -0.7910 C.3     1  UNL1        0.0000
     60 C           2.4180    2.7580   -1.5900 C.3     1  UNL1        0.0000
     61 C           3.6680    2.6920    0.6570 C.3     1  UNL1        0.0000
     62 C           3.0620    1.7980    1.7590 C.3     1  UNL1        0.0000
     63 C           2.7370    2.4730    3.1060 C.3     1  UNL1        0.0000
     64 C           1.3110    3.0730    3.2590 C.3     1  UNL1        0.0000
     65 C           0.4440    2.2930    4.2680 C.3     1  UNL1        0.0000
     66 C           1.3220    4.5800    3.5850 C.3     1  UNL1        0.0000
     67 H          -4.5230   -1.6070    3.3790 H       1  UNL1        0.0000
     68 H          -4.1560    4.4760    1.9390 H       1  UNL1        0.0000
     69 H          -0.9290    3.1140   -3.1860 H       1  UNL1        0.0000
     70 H          -2.5440   -4.4620    0.1220 H       1  UNL1        0.0000
     71 H          -3.3080   -3.7130    2.6280 H       1  UNL1        0.0000
     72 H          -5.5160   -3.8030    1.9520 H       1  UNL1        0.0000
     73 H          -4.7360   -5.0000    1.2580 H       1  UNL1        0.0000
     74 H          -5.1030   -3.6960    0.4220 H       1  UNL1        0.0000
     75 H          -0.8700   -3.4130    2.1780 H       1  UNL1        0.0000
     76 H          -0.2520   -3.6970    0.7470 H       1  UNL1        0.0000
     77 H          -1.4940   -5.9730    1.6470 H       1  UNL1        0.0000
     78 H          -0.4810   -5.4560    2.7450 H       1  UNL1        0.0000
     79 H          -6.1790    0.9480    5.4970 H       1  UNL1        0.0000
     80 H          -5.3280   -0.3600    5.2610 H       1  UNL1        0.0000
     81 H          -6.6800   -0.1410    4.4670 H       1  UNL1        0.0000
     82 H          -4.9960    3.0610    5.9450 H       1  UNL1        0.0000
     83 H          -6.4740    3.6120    5.9910 H       1  UNL1        0.0000
     84 H          -5.2670    4.6080    5.7830 H       1  UNL1        0.0000
     85 H          -2.8150    5.8290    0.2770 H       1  UNL1        0.0000
     86 H          -2.0930    5.2200   -2.2570 H       1  UNL1        0.0000
     87 H          -4.1970    6.4620   -1.4920 H       1  UNL1        0.0000
     88 H          -5.0300    5.7440   -0.3460 H       1  UNL1        0.0000
     89 H          -4.6700    4.9540   -1.6770 H       1  UNL1        0.0000
     90 H           0.0420    4.6330   -0.5450 H       1  UNL1        0.0000
     91 H          -0.5740    6.0470   -0.2250 H       1  UNL1        0.0000
     92 H           1.2200    6.2840   -1.7020 H       1  UNL1        0.0000
     93 H          -0.1130    6.7640   -2.4230 H       1  UNL1        0.0000
     94 H           0.5050    5.3360   -2.7600 H       1  UNL1        0.0000
     95 H           0.6590    0.1240   -5.1440 H       1  UNL1        0.0000
     96 H           0.4290    1.6460   -4.7580 H       1  UNL1        0.0000
     97 H          -0.6810    0.8570   -5.5720 H       1  UNL1        0.0000
     98 H          -0.5600   -3.8480   -1.9070 H       1  UNL1        0.0000
     99 H          -4.2220   -4.5820   -4.7040 H       1  UNL1        0.0000
    100 H          -5.1290   -3.3430   -4.3060 H       1  UNL1        0.0000
    101 H          -4.9310   -4.5400   -3.2850 H       1  UNL1        0.0000
    102 H           2.9000   -7.0160    0.7220 H       1  UNL1        0.0000
    103 H           3.6240   -5.9750    1.6870 H       1  UNL1        0.0000
    104 H           3.2640   -5.6830   -1.0110 H       1  UNL1        0.0000
    105 H           3.5590   -3.4280    1.7700 H       1  UNL1        0.0000
    106 H           3.0920   -2.2460    0.8390 H       1  UNL1        0.0000
    107 H           4.6280   -2.5960    0.9670 H       1  UNL1        0.0000
    108 H           3.7360   -2.3250   -1.5370 H       1  UNL1        0.0000
    109 H           3.2550   -3.6470   -2.2380 H       1  UNL1        0.0000
    110 H           5.2460   -3.5580   -3.1210 H       1  UNL1        0.0000
    111 H           5.5980   -4.4150   -1.8480 H       1  UNL1        0.0000
    112 H           7.2380   -3.0090   -1.6070 H       1  UNL1        0.0000
    113 H           6.1600   -2.1350   -0.8590 H       1  UNL1        0.0000
    114 H           5.9360   -1.3950   -3.4240 H       1  UNL1        0.0000
    115 H           8.0920   -0.8160   -4.1650 H       1  UNL1        0.0000
    116 H           7.9910   -2.3840   -3.9560 H       1  UNL1        0.0000
    117 H           8.7320   -1.4860   -2.8780 H       1  UNL1        0.0000
    118 H           7.2460    0.6650   -2.5030 H       1  UNL1        0.0000
    119 H           6.6590    0.0550   -1.1700 H       1  UNL1        0.0000
    120 H           4.4610    0.1610   -2.2720 H       1  UNL1        0.0000
    121 H           5.1630    1.0380   -3.3770 H       1  UNL1        0.0000
    122 H           4.9050    2.8490   -2.2390 H       1  UNL1        0.0000
    123 H           5.6610    2.2380   -0.9970 H       1  UNL1        0.0000
    124 H           3.3270    1.1560   -0.6620 H       1  UNL1        0.0000
    125 H           1.5910    2.6990   -1.0810 H       1  UNL1        0.0000
    126 H           2.3040    2.2940   -2.4380 H       1  UNL1        0.0000
    127 H           2.6230    3.6930   -1.7610 H       1  UNL1        0.0000
    128 H           3.2180    3.5650    0.6830 H       1  UNL1        0.0000
    129 H           4.6110    2.8470    0.8830 H       1  UNL1        0.0000
    130 H           3.6940    1.0670    1.9340 H       1  UNL1        0.0000
    131 H           2.2420    1.3810    1.4120 H       1  UNL1        0.0000
    132 H           3.3980    3.1840    3.2580 H       1  UNL1        0.0000
    133 H           2.8750    1.8050    3.8130 H       1  UNL1        0.0000
    134 H           0.8550    2.9890    2.3810 H       1  UNL1        0.0000
    135 H          -0.4500    2.6760    4.3000 H       1  UNL1        0.0000
    136 H           0.8470    2.3410    5.1530 H       1  UNL1        0.0000
    137 H           0.3830    1.3620    3.9930 H       1  UNL1        0.0000
    138 H           1.7990    5.0590    2.8860 H       1  UNL1        0.0000
    139 H           1.7670    4.7280    4.4370 H       1  UNL1        0.0000
    140 H           0.4100    4.9130    3.6340 H       1  UNL1        0.0000
@<TRIPOS>UNITY_ATOM_ATTR
1 1
charge 2
17 1
charge -1
34 1
charge -1
@<TRIPOS>BOND
     1     1     6    1
     2     1    17    1
     3     1    26    1
     4     1    34    1
     5     2     7    1
     6     2    38    2
     7     2    42    1
     8     3    10    2
     9     3    18    1
    10     3    67    1
    11     4    21    1
    12     4    27    2
    13     4    68    1
    14     5    30    1
    15     5    35    2
    16     5    69    1
    17     6     7    2
    18     6    10    1
    19     7     8    1
    20     8     9    1
    21     8    12    1
    22     8    70    1
    23     9    10    1
    24     9    11    1
    25     9    71    1
    26    11    72    1
    27    11    73    1
    28    11    74    1
    29    12    13    1
    30    12    75    1
    31    12    76    1
    32    13    14    1
    33    13    77    1
    34    13    78    1
    35    14    15    2
    36    14    16    1
    37    16    47    1
    38    17    18    1
    39    17    21    1
    40    18    19    2
    41    19    20    1
    42    19    22    1
    43    20    21    2
    44    20    23    1
    45    22    79    1
    46    22    80    1
    47    22    81    1
    48    23    24    2
    49    23    25    1
    50    25    82    1
    51    25    83    1
    52    25    84    1
    53    26    27    1
    54    26    30    2
    55    27    28    1
    56    28    29    1
    57    28    31    1
    58    28    85    1
    59    29    30    1
    60    29    32    1
    61    29    86    1
    62    31    87    1
    63    31    88    1
    64    31    89    1
    65    32    33    1
    66    32    90    1
    67    32    91    1
    68    33    92    1
    69    33    93    1
    70    33    94    1
    71    34    35    1
    72    34    38    1
    73    35    36    1
    74    36    37    2
    75    36    39    1
    76    37    38    1
    77    37    40    1
    78    39    95    1
    79    39    96    1
    80    39    97    1
    81    40    41    2
    82    40    42    1
    83    42    43    1
    84    42    98    1
    85    43    44    2
    86    43    45    1
    87    45    46    1
    88    46    99    1
    89    46   100    1
    90    46   101    1
    91    47    48    1
    92    47   102    1
    93    47   103    1
    94    48    49    2
    95    48   104    1
    96    49    50    1
    97    49    51    1
    98    50   105    1
    99    50   106    1
   100    50   107    1
   101    51    52    1
   102    51   108    1
   103    51   109    1
   104    52    53    1
   105    52   110    1
   106    52   111    1
   107    53    54    1
   108    53   112    1
   109    53   113    1
   110    54    55    1
   111    54    56    1
   112    54   114    1
   113    55   115    1
   114    55   116    1
   115    55   117    1
   116    56    57    1
   117    56   118    1
   118    56   119    1
   119    57    58    1
   120    57   120    1
   121    57   121    1
   122    58    59    1
   123    58   122    1
   124    58   123    1
   125    59    60    1
   126    59    61    1
   127    59   124    1
   128    60   125    1
   129    60   126    1
   130    60   127    1
   131    61    62    1
   132    61   128    1
   133    61   129    1
   134    62    63    1
   135    62   130    1
   136    62   131    1
   137    63    64    1
   138    63   132    1
   139    63   133    1
   140    64    65    1
   141    64    66    1
   142    64   134    1
   143    65   135    1
   144    65   136    1
   145    65   137    1
   146    66   138    1
   147    66   139    1
   148    66   140    1
