@<TRIPOS>MOLECULE
biotin
 32 33 0 0 0
SMALL
GASTEIGER

@<TRIPOS>ATOM
      1 S          -2.4613    1.9562    1.0264 S.3     1  UNL1       -0.1536
      2 O          -3.0282   -2.7745    0.7862 O.2     1  UNL1       -0.2528
      3 O           5.9601   -0.7286   -0.8625 O.3     1  UNL1       -0.4806
      4 O           5.2345   -0.1562    1.2118 O.2     1  UNL1       -0.2510
      5 N          -1.6389   -1.0776   -0.0379 N.am    1  UNL1       -0.2937
      6 N          -3.8653   -0.8760   -0.3016 N.am    1  UNL1       -0.2940
      7 C          -1.7963    0.1561   -0.7847 C.3     1  UNL1        0.0555
      8 C          -3.3272    0.3325   -0.8946 C.3     1  UNL1        0.0529
      9 C          -1.1759    1.3861   -0.1164 C.3     1  UNL1        0.0255
     10 C          -3.7881    1.5775   -0.1402 C.3     1  UNL1        0.0143
     11 C           0.1515    1.1550    0.5864 C.3     1  UNL1       -0.0394
     12 C           1.2536    0.6369   -0.3410 C.3     1  UNL1       -0.0515
     13 C          -2.8641   -1.7026    0.2196 C.2     1  UNL1        0.3002
     14 C           2.6265    0.4376    0.3075 C.3     1  UNL1       -0.0430
     15 C           3.7018   -0.0234   -0.6757 C.3     1  UNL1        0.0448
     16 C           5.0173   -0.2989    0.0167 C.2     1  UNL1        0.3047
     17 H          -1.3490   -0.0162   -1.7704 H       1  UNL1        0.0528
     18 H          -3.6671    0.3619   -1.9353 H       1  UNL1        0.0525
     19 H          -1.0542    2.1751   -0.8686 H       1  UNL1        0.0431
     20 H          -3.8795    2.4249   -0.8272 H       1  UNL1        0.0395
     21 H          -4.7428    1.4441    0.3770 H       1  UNL1        0.0395
     22 H           0.4936    2.1002    1.0286 H       1  UNL1        0.0276
     23 H           0.0371    0.4536    1.4230 H       1  UNL1        0.0276
     24 H          -0.7448   -1.4961    0.1981 H       1  UNL1        0.1506
     25 H          -4.8538   -1.1054   -0.2752 H       1  UNL1        0.1506
     26 H           0.9495   -0.3160   -0.7878 H       1  UNL1        0.0266
     27 H           1.3643    1.3430   -1.1743 H       1  UNL1        0.0266
     28 H           2.9441    1.3772    0.7770 H       1  UNL1        0.0270
     29 H           2.5308   -0.2954    1.1187 H       1  UNL1        0.0270
     30 H           3.8662    0.7490   -1.4347 H       1  UNL1        0.0377
     31 H           3.3792   -0.9469   -1.1688 H       1  UNL1        0.0377
     32 H           6.8176   -0.9066   -0.4205 H       1  UNL1        0.2951
@<TRIPOS>BOND
     1     1     9    1
     2     1    10    1
     3     2    13    2
     4     3    16    1
     5     3    32    1
     6     4    16    2
     7     5     7    1
     8     5    13   am
     9     5    24    1
    10     6     8    1
    11     6    13   am
    12     6    25    1
    13     7     8    1
    14     7     9    1
    15     7    17    1
    16     8    10    1
    17     8    18    1
    18     9    11    1
    19     9    19    1
    20    10    20    1
    21    10    21    1
    22    11    12    1
    23    11    22    1
    24    11    23    1
    25    12    14    1
    26    12    26    1
    27    12    27    1
    28    14    15    1
    29    14    28    1
    30    14    29    1
    31    15    16    1
    32    15    30    1
    33    15    31    1
