@<TRIPOS>MOLECULE
carnitine
 26 25 0 0 0
SMALL
GASTEIGER

@<TRIPOS>ATOM
      1 O          -0.0831   -1.5880   -0.3056 O.3     1  UNL1       -0.3862
      2 O          -3.4296    1.0108    0.2338 O.co2   1  UNL1       -0.5497
      3 O          -2.1834   -0.1386   -1.2950 O.co2   1  UNL1       -0.5497
      4 N           2.0154    0.2883   -0.0512 N.4     1  UNL1        0.2387
      5 C           0.5711    0.6320    0.2839 C.3     1  UNL1       -0.0039
      6 C          -0.1997   -0.6098    0.7281 C.3     1  UNL1        0.0999
      7 C           2.6908   -0.3131    1.1728 C.3     1  UNL1       -0.0417
      8 C           2.0455   -0.7176   -1.1929 C.3     1  UNL1       -0.0417
      9 C           2.7540    1.5518   -0.4685 C.3     1  UNL1       -0.0417
     10 C          -1.6763   -0.3442    1.0267 C.3     1  UNL1        0.0179
     11 C          -2.5050    0.2284   -0.1321 C.2     1  UNL1        0.0444
     12 H           0.1420    1.0771   -0.6211 H       1  UNL1        0.0840
     13 H           0.5813    1.3908    1.0754 H       1  UNL1        0.0840
     14 H           0.2333   -1.0357    1.6383 H       1  UNL1        0.0650
     15 H           2.2935   -1.3104    1.3759 H       1  UNL1        0.0778
     16 H           3.7610   -0.3996    0.9582 H       1  UNL1        0.0778
     17 H           2.5343    0.3566    2.0236 H       1  UNL1        0.0778
     18 H           3.0207   -0.6189   -1.6853 H       1  UNL1        0.0778
     19 H           2.0105   -1.7436   -0.8176 H       1  UNL1        0.0778
     20 H           1.2750   -0.4723   -1.9302 H       1  UNL1        0.0778
     21 H           2.2669    1.9574   -1.3603 H       1  UNL1        0.0778
     22 H           2.7040    2.2691    0.3561 H       1  UNL1        0.0778
     23 H           3.7958    1.2961   -0.6848 H       1  UNL1        0.0778
     24 H          -2.1645   -1.2852    1.3104 H       1  UNL1        0.0352
     25 H          -1.7495    0.3348    1.8852 H       1  UNL1        0.0352
     26 H          -0.5561   -2.3846   -0.0104 H       1  UNL1        0.2100
@<TRIPOS>UNITY_ATOM_ATTR
2 1
charge -1
4 1
charge 1
@<TRIPOS>BOND
     1     1     6    1
     2     1    26    1
     3     2    11   ar
     4     3    11   ar
     5     4     5    1
     6     4     7    1
     7     4     8    1
     8     4     9    1
     9     5     6    1
    10     5    12    1
    11     5    13    1
    12     6    10    1
    13     6    14    1
    14     7    15    1
    15     7    16    1
    16     7    17    1
    17     8    18    1
    18     8    19    1
    19     8    20    1
    20     9    21    1
    21     9    22    1
    22     9    23    1
    23    10    11    1
    24    10    24    1
    25    10    25    1
