@<TRIPOS>MOLECULE
chlorophyll_a
 137 145 0 0 0
SMALL
GASTEIGER

@<TRIPOS>ATOM
      1 MG          5.4890    0.2630   -0.0100 Mg      1  UNL1        0.0000
      2 C           4.1490    1.4120   -3.0310 C.2     1  UNL1        0.0000
      3 C           2.5290    1.0790    1.4870 C.2     1  UNL1        0.0000
      4 C           6.4970   -1.4800    2.7330 C.2     1  UNL1        0.0000
      5 C           8.2480   -1.0380   -1.7700 C.2     1  UNL1        0.0000
      6 N           3.6230    1.1290   -0.6990 N.2     1  UNL1        0.0000
      7 C           3.2780    1.5880   -1.9600 C.2     1  UNL1        0.0000
      8 C           1.9100    2.2510   -1.9920 C.3     1  UNL1        0.0000
      9 C           1.6540    2.4800   -0.4680 C.3     1  UNL1        0.0000
     10 C           2.6400    1.4940    0.1510 C.2     1  UNL1        0.0000
     11 C           1.8790    3.9270   -0.0160 C.3     1  UNL1        0.0000
     12 C           0.8260    1.4250   -2.7200 C.3     1  UNL1        0.0000
     13 C          -0.3120    2.2380   -3.3420 C.3     1  UNL1        0.0000
     14 C          -1.1940    1.4390   -4.2550 C.2     1  UNL1        0.0000
     15 O          -0.8940    1.0990   -5.3780 O.2     1  UNL1        0.0000
     16 O          -2.3780    1.1500   -3.6660 O.3     1  UNL1        0.0000
     17 N           4.6210   -0.1600    1.8520 N.pl3   1  UNL1       -1.0000
     18 C           3.4190    0.2750    2.3000 C.2     1  UNL1        0.0000
     19 C           3.2180   -0.1700    3.6050 C.2     1  UNL1        0.0000
     20 C           4.3610   -0.9320    3.9840 C.2     1  UNL1        0.0000
     21 C           5.2130   -0.8850    2.8800 C.2     1  UNL1        0.0000
     22 C           2.0010    0.0840    4.4530 C.3     1  UNL1        0.0000
     23 C           4.6840   -1.6270    5.2690 C.2     1  UNL1        0.0000
     24 C           4.1460   -1.6650    6.4700 C.2     1  UNL1        0.0000
     25 N           7.1010   -1.0860    0.3990 N.2     1  UNL1        0.0000
     26 C           7.3720   -1.5940    1.6320 C.2     1  UNL1        0.0000
     27 C           8.6060   -2.2070    1.6080 C.2     1  UNL1        0.0000
     28 C           9.1070   -2.0770    0.3400 C.2     1  UNL1        0.0000
     29 C           8.1680   -1.3900   -0.4040 C.2     1  UNL1        0.0000
     30 C           9.2970   -2.8890    2.7620 C.3     1  UNL1        0.0000
     31 C          10.4330   -2.5930   -0.1620 C.3     1  UNL1        0.0000
     32 C          10.3290   -3.9830   -0.7770 C.3     1  UNL1        0.0000
     33 N           6.1360    0.1270   -1.9680 N.pl3   1  UNL1       -1.0000
     34 C           7.2980   -0.3630   -2.5350 C.2     1  UNL1        0.0000
     35 C           7.2910   -0.0730   -3.9220 C.2     1  UNL1        0.0000
     36 C           6.0860    0.6290   -4.1740 C.2     1  UNL1        0.0000
     37 C           5.4170    0.7270   -2.9670 C.2     1  UNL1        0.0000
     38 C           8.3190   -0.3990   -4.9550 C.3     1  UNL1        0.0000
     39 C           5.2720    1.2740   -5.2070 C.2     1  UNL1        0.0000
     40 O           5.4510    1.3770   -6.4130 O.2     1  UNL1        0.0000
     41 C           4.0220    1.8970   -4.4680 C.3     1  UNL1        0.0000
     42 C           4.1110    3.4090   -4.5890 C.2     1  UNL1        0.0000
     43 O           5.0100    4.0590   -4.1260 O.2     1  UNL1        0.0000
     44 O           3.0660    3.9110   -5.2730 O.3     1  UNL1        0.0000
     45 C           3.0010    5.3470   -5.4750 C.3     1  UNL1        0.0000
     46 C          -3.4580    0.4150   -4.3020 C.3     1  UNL1        0.0000
     47 C          -4.3100   -0.2250   -3.2560 C.2     1  UNL1        0.0000
     48 C          -5.3490   -1.0600   -3.4030 C.2     1  UNL1        0.0000
     49 C          -5.9910   -1.4980   -4.7040 C.3     1  UNL1        0.0000
     50 C          -5.9610   -1.6760   -2.1570 C.3     1  UNL1        0.0000
     51 C          -7.0520   -0.8320   -1.5000 C.3     1  UNL1        0.0000
     52 C          -7.4230   -1.2230   -0.0600 C.3     1  UNL1        0.0000
     53 C          -8.6430   -0.4620    0.5400 C.3     1  UNL1        0.0000
     54 C          -8.2230    0.8810    1.1960 C.3     1  UNL1        0.0000
     55 C          -9.5530   -1.3120    1.4820 C.3     1  UNL1        0.0000
     56 C         -11.0540   -0.9730    1.4170 C.3     1  UNL1        0.0000
     57 C         -11.9530   -1.5910    2.5060 C.3     1  UNL1        0.0000
     58 C         -13.2900   -0.8280    2.7740 C.3     1  UNL1        0.0000
     59 C         -13.1050    0.3250    3.7920 C.3     1  UNL1        0.0000
     60 C         -14.5170   -1.7240    3.1340 C.3     1  UNL1        0.0000
     61 C         -15.6740   -1.6740    2.1180 C.3     1  UNL1        0.0000
     62 C         -16.8980   -2.5600    2.4180 C.3     1  UNL1        0.0000
     63 C         -17.9800   -1.9690    3.3650 C.3     1  UNL1        0.0000
     64 C         -19.3390   -1.7660    2.6650 C.3     1  UNL1        0.0000
     65 C         -18.1430   -2.7780    4.6670 C.3     1  UNL1        0.0000
     66 H           1.7560    1.3740    1.9390 H       1  UNL1        0.0000
     67 H           6.8370   -1.8460    3.5350 H       1  UNL1        0.0000
     68 H           9.0360   -1.2810   -2.2350 H       1  UNL1        0.0000
     69 H           2.0040    3.1180   -2.4700 H       1  UNL1        0.0000
     70 H           0.7250    2.2500   -0.1970 H       1  UNL1        0.0000
     71 H           1.7060    4.0040    0.9400 H       1  UNL1        0.0000
     72 H           1.2750    4.5240   -0.4980 H       1  UNL1        0.0000
     73 H           2.8010    4.1920   -0.1940 H       1  UNL1        0.0000
     74 H           0.4380    0.7770   -2.0860 H       1  UNL1        0.0000
     75 H           1.2610    0.9060   -3.4350 H       1  UNL1        0.0000
     76 H           0.0690    2.9850   -3.8530 H       1  UNL1        0.0000
     77 H          -0.8560    2.6230   -2.6220 H       1  UNL1        0.0000
     78 H           1.8240   -0.6900    5.0100 H       1  UNL1        0.0000
     79 H           1.2280    0.2440    3.8890 H       1  UNL1        0.0000
     80 H           2.1540    0.8590    5.0170 H       1  UNL1        0.0000
     81 H           5.4380   -2.1930    5.2340 H       1  UNL1        0.0000
     82 H           4.5240   -2.2190    7.1320 H       1  UNL1        0.0000
     83 H           3.4020   -1.1270    6.6790 H       1  UNL1        0.0000
     84 H           9.8770   -3.5950    2.4350 H       1  UNL1        0.0000
     85 H           8.6400   -3.2820    3.3570 H       1  UNL1        0.0000
     86 H           9.8270   -2.2400    3.2530 H       1  UNL1        0.0000
     87 H          11.0810   -2.6190    0.5780 H       1  UNL1        0.0000
     88 H          10.7890   -1.9730   -0.8380 H       1  UNL1        0.0000
     89 H          11.2090   -4.2710   -1.0820 H       1  UNL1        0.0000
     90 H           9.7160   -3.9590   -1.5340 H       1  UNL1        0.0000
     91 H           9.9960   -4.6110   -0.1090 H       1  UNL1        0.0000
     92 H           7.8920   -0.4810   -5.8240 H       1  UNL1        0.0000
     93 H           8.7540   -1.2390   -4.7280 H       1  UNL1        0.0000
     94 H           8.9830    0.3100   -4.9870 H       1  UNL1        0.0000
     95 H           3.1620    1.5770   -4.8530 H       1  UNL1        0.0000
     96 H           2.9740    5.7940   -4.6140 H       1  UNL1        0.0000
     97 H           2.1990    5.5650   -5.9790 H       1  UNL1        0.0000
     98 H           3.7840    5.6400   -5.9690 H       1  UNL1        0.0000
     99 H          -3.0860   -0.2760   -4.8920 H       1  UNL1        0.0000
    100 H          -3.9990    1.0310   -4.8420 H       1  UNL1        0.0000
    101 H          -4.0760    0.0100   -2.3710 H       1  UNL1        0.0000
    102 H          -5.5950   -1.0320   -5.4530 H       1  UNL1        0.0000
    103 H          -6.9410   -1.3040   -4.6810 H       1  UNL1        0.0000
    104 H          -5.8640   -2.4520   -4.8240 H       1  UNL1        0.0000
    105 H          -5.2530   -1.8330   -1.5010 H       1  UNL1        0.0000
    106 H          -6.3440   -2.5480   -2.3820 H       1  UNL1        0.0000
    107 H          -7.8560   -0.8940   -2.0630 H       1  UNL1        0.0000
    108 H          -6.7610    0.1070   -1.5050 H       1  UNL1        0.0000
    109 H          -6.6380   -1.0730    0.5120 H       1  UNL1        0.0000
    110 H          -7.6090   -2.1880   -0.0470 H       1  UNL1        0.0000
    111 H          -9.2200   -0.2340   -0.2380 H       1  UNL1        0.0000
    112 H          -9.0120    1.3590    1.5050 H       1  UNL1        0.0000
    113 H          -7.7520    1.4320    0.5460 H       1  UNL1        0.0000
    114 H          -7.6380    0.7070    1.9520 H       1  UNL1        0.0000
    115 H          -9.2460   -1.2000    2.4090 H       1  UNL1        0.0000
    116 H          -9.4520   -2.2620    1.2560 H       1  UNL1        0.0000
    117 H         -11.3940   -1.2640    0.5420 H       1  UNL1        0.0000
    118 H         -11.1530    0.0050    1.4470 H       1  UNL1        0.0000
    119 H         -11.4430   -1.6430    3.3450 H       1  UNL1        0.0000
    120 H         -12.1600   -2.5120    2.2350 H       1  UNL1        0.0000
    121 H         -13.5200   -0.4030    1.9050 H       1  UNL1        0.0000
    122 H         -13.9390    0.8170    3.8890 H       1  UNL1        0.0000
    123 H         -12.4120    0.9310    3.4790 H       1  UNL1        0.0000
    124 H         -12.8460   -0.0400    4.6550 H       1  UNL1        0.0000
    125 H         -14.8700   -1.4550    4.0110 H       1  UNL1        0.0000
    126 H         -14.2240   -2.6580    3.2160 H       1  UNL1        0.0000
    127 H         -15.3210   -1.9350    1.2390 H       1  UNL1        0.0000
    128 H         -15.9730   -0.7400    2.0350 H       1  UNL1        0.0000
    129 H         -16.5750   -3.4070    2.7960 H       1  UNL1        0.0000
    130 H         -17.3200   -2.7790    1.5580 H       1  UNL1        0.0000
    131 H         -17.6740   -1.0650    3.6400 H       1  UNL1        0.0000
    132 H         -19.9720   -1.3610    3.2830 H       1  UNL1        0.0000
    133 H         -19.6850   -2.6250    2.3660 H       1  UNL1        0.0000
    134 H         -19.2250   -1.1810    1.8970 H       1  UNL1        0.0000
    135 H         -17.2910   -2.8160    5.1350 H       1  UNL1        0.0000
    136 H         -18.4350   -3.6820    4.4580 H       1  UNL1        0.0000
    137 H         -18.8030   -2.3510    5.2410 H       1  UNL1        0.0000
@<TRIPOS>UNITY_ATOM_ATTR
1 1
charge 2
17 1
charge -1
33 1
charge -1
@<TRIPOS>BOND
     1     1     6    1
     2     1    17    1
     3     1    25    1
     4     1    33    1
     5     2     7    1
     6     2    37    2
     7     2    41    1
     8     3    10    2
     9     3    18    1
    10     3    66    1
    11     4    21    1
    12     4    26    2
    13     4    67    1
    14     5    29    1
    15     5    34    2
    16     5    68    1
    17     6     7    2
    18     6    10    1
    19     7     8    1
    20     8     9    1
    21     8    12    1
    22     8    69    1
    23     9    10    1
    24     9    11    1
    25     9    70    1
    26    11    71    1
    27    11    72    1
    28    11    73    1
    29    12    13    1
    30    12    74    1
    31    12    75    1
    32    13    14    1
    33    13    76    1
    34    13    77    1
    35    14    15    2
    36    14    16    1
    37    16    46    1
    38    17    18    1
    39    17    21    1
    40    18    19    2
    41    19    20    1
    42    19    22    1
    43    20    21    2
    44    20    23    1
    45    22    78    1
    46    22    79    1
    47    22    80    1
    48    23    24    2
    49    23    81    1
    50    24    82    1
    51    24    83    1
    52    25    26    1
    53    25    29    2
    54    26    27    1
    55    27    28    2
    56    27    30    1
    57    28    29    1
    58    28    31    1
    59    30    84    1
    60    30    85    1
    61    30    86    1
    62    31    32    1
    63    31    87    1
    64    31    88    1
    65    32    89    1
    66    32    90    1
    67    32    91    1
    68    33    34    1
    69    33    37    1
    70    34    35    1
    71    35    36    2
    72    35    38    1
    73    36    37    1
    74    36    39    1
    75    38    92    1
    76    38    93    1
    77    38    94    1
    78    39    40    2
    79    39    41    1
    80    41    42    1
    81    41    95    1
    82    42    43    2
    83    42    44    1
    84    44    45    1
    85    45    96    1
    86    45    97    1
    87    45    98    1
    88    46    47    1
    89    46    99    1
    90    46   100    1
    91    47    48    2
    92    47   101    1
    93    48    49    1
    94    48    50    1
    95    49   102    1
    96    49   103    1
    97    49   104    1
    98    50    51    1
    99    50   105    1
   100    50   106    1
   101    51    52    1
   102    51   107    1
   103    51   108    1
   104    52    53    1
   105    52   109    1
   106    52   110    1
   107    53    54    1
   108    53    55    1
   109    53   111    1
   110    54   112    1
   111    54   113    1
   112    54   114    1
   113    55    56    1
   114    55   115    1
   115    55   116    1
   116    56    57    1
   117    56   117    1
   118    56   118    1
   119    57    58    1
   120    57   119    1
   121    57   120    1
   122    58    59    1
   123    58    60    1
   124    58   121    1
   125    59   122    1
   126    59   123    1
   127    59   124    1
   128    60    61    1
   129    60   125    1
   130    60   126    1
   131    61    62    1
   132    61   127    1
   133    61   128    1
   134    62    63    1
   135    62   129    1
   136    62   130    1
   137    63    64    1
   138    63    65    1
   139    63   131    1
   140    64   132    1
   141    64   133    1
   142    64   134    1
   143    65   135    1
   144    65   136    1
   145    65   137    1
