@<TRIPOS>MOLECULE
chlorophyll_b
 136 144 0 0 0
SMALL
GASTEIGER

@<TRIPOS>ATOM
      1 MG          5.3450   -0.4090   -0.9750 Mg      1  UNL1        0.0000
      2 C           4.0510   -3.1820    0.7310 C.2     1  UNL1        0.0000
      3 C           2.2510    0.0330   -2.3600 C.2     1  UNL1        0.0000
      4 C           6.3680    2.6460   -2.0940 C.2     1  UNL1        0.0000
      5 C           8.2770   -0.6380    0.9640 C.2     1  UNL1        0.0000
      6 N           3.4460   -1.4530   -0.8310 N.2     1  UNL1        0.0000
      7 C           3.1260   -2.6100   -0.1370 C.2     1  UNL1        0.0000
      8 C           1.7280   -3.1210   -0.4510 C.3     1  UNL1        0.0000
      9 C           1.3860   -2.2910   -1.7310 C.3     1  UNL1        0.0000
     10 C           2.4000   -1.1560   -1.6300 C.2     1  UNL1        0.0000
     11 C           1.5020   -3.0920   -3.0330 C.3     1  UNL1        0.0000
     12 C           0.7150   -2.9740    0.7060 C.3     1  UNL1        0.0000
     13 C          -0.4200   -4.0020    0.7180 C.3     1  UNL1        0.0000
     14 C          -1.2150   -4.0050    1.9890 C.2     1  UNL1        0.0000
     15 O          -0.8640   -4.5340    3.0200 O.2     1  UNL1        0.0000
     16 O          -2.3850   -3.3430    1.8380 O.3     1  UNL1        0.0000
     17 N           4.4290    1.1350   -2.0650 N.pl3   1  UNL1       -1.0000
     18 C           3.1650    1.1400   -2.5530 C.2     1  UNL1        0.0000
     19 C           2.9300    2.3330   -3.2330 C.2     1  UNL1        0.0000
     20 C           4.1160    3.1170   -3.1530 C.2     1  UNL1        0.0000
     21 C           5.0260    2.3310   -2.4440 C.2     1  UNL1        0.0000
     22 C           1.6440    2.7360   -3.9020 C.3     1  UNL1        0.0000
     23 C           4.4270    4.4680   -3.7150 C.2     1  UNL1        0.0000
     24 C           3.8340    5.2800   -4.5640 C.2     1  UNL1        0.0000
     25 N           7.0530    0.8270   -0.5740 N.2     1  UNL1        0.0000
     26 C           7.3280    2.0020   -1.2670 C.2     1  UNL1        0.0000
     27 C           8.6400    2.4020   -1.0160 C.2     1  UNL1        0.0000
     28 C           9.1770    1.4250   -0.1290 C.2     1  UNL1        0.0000
     29 C           8.1830    0.4970    0.1270 C.2     1  UNL1        0.0000
     30 C           9.3830    3.5470   -1.5210 C.2     1  UNL1        0.0000
     31 O           8.9850    4.3710   -2.3180 O.2     1  UNL1        0.0000
     32 C          10.5730    1.4140    0.4410 C.3     1  UNL1        0.0000
     33 C          10.6760    2.1720    1.7560 C.3     1  UNL1        0.0000
     34 N           6.0890   -1.5880    0.5520 N.pl3   1  UNL1       -1.0000
     35 C           7.3050   -1.6050    1.2120 C.2     1  UNL1        0.0000
     36 C           7.3240   -2.6960    2.1150 C.2     1  UNL1        0.0000
     37 C           6.0810   -3.3570    1.9640 C.2     1  UNL1        0.0000
     38 C           5.3640   -2.6550    1.0110 C.2     1  UNL1        0.0000
     39 C           8.4090   -3.1260    3.0470 C.3     1  UNL1        0.0000
     40 C           5.2550   -4.4750    2.4310 C.2     1  UNL1        0.0000
     41 O           5.4620   -5.3070    3.3030 O.2     1  UNL1        0.0000
     42 C           3.9490   -4.4660    1.5430 C.3     1  UNL1        0.0000
     43 C           3.9530   -5.7110    0.6720 C.2     1  UNL1        0.0000
     44 O           4.8300   -5.9700   -0.1090 O.2     1  UNL1        0.0000
     45 O           2.8590   -6.4650    0.8840 O.3     1  UNL1        0.0000
     46 C           2.7030   -7.6860    0.1140 C.3     1  UNL1        0.0000
     47 C          -3.3840   -3.1940    2.8810 C.3     1  UNL1        0.0000
     48 C          -4.2370   -2.0050    2.5870 C.2     1  UNL1        0.0000
     49 C          -5.2010   -1.4480    3.3350 C.2     1  UNL1        0.0000
     50 C          -5.7410   -1.9560    4.6560 C.3     1  UNL1        0.0000
     51 C          -5.8260   -0.1500    2.8540 C.3     1  UNL1        0.0000
     52 C          -7.0100   -0.3290    1.9070 C.3     1  UNL1        0.0000
     53 C          -7.4400    0.9320    1.1400 C.3     1  UNL1        0.0000
     54 C          -8.7480    0.7860    0.3070 C.3     1  UNL1        0.0000
     55 C          -8.4660    0.2490   -1.1220 C.3     1  UNL1        0.0000
     56 C          -9.6460    2.0620    0.2890 C.3     1  UNL1        0.0000
     57 C         -11.1630    1.8050    0.1790 C.3     1  UNL1        0.0000
     58 C         -12.0010    2.9320   -0.4570 C.3     1  UNL1        0.0000
     59 C         -13.4560    2.5310   -0.8490 C.3     1  UNL1        0.0000
     60 C         -13.5160    1.8740   -2.2560 C.3     1  UNL1        0.0000
     61 C         -14.5200    3.6590   -0.6870 C.3     1  UNL1        0.0000
     62 C         -15.9170    3.1760   -0.2560 C.3     1  UNL1        0.0000
     63 C         -17.0050    4.2560   -0.1300 C.3     1  UNL1        0.0000
     64 C         -18.4670    3.7490   -0.1010 C.3     1  UNL1        0.0000
     65 C         -19.3660    4.5590    0.8530 C.3     1  UNL1        0.0000
     66 C         -19.0920    3.6580   -1.5110 C.3     1  UNL1        0.0000
     67 H           1.4270    0.1310   -2.8080 H       1  UNL1        0.0000
     68 H           6.6960    3.4310   -2.5050 H       1  UNL1        0.0000
     69 H           9.0930   -0.7710    1.4240 H       1  UNL1        0.0000
     70 H           1.2800   -2.5220   -3.7910 H       1  UNL1        0.0000
     71 H           0.8870   -3.8490   -3.0130 H       1  UNL1        0.0000
     72 H           2.4140   -3.4220   -3.1400 H       1  UNL1        0.0000
     73 H           0.3190   -2.0710    0.6730 H       1  UNL1        0.0000
     74 H           1.2050   -3.0440    1.5570 H       1  UNL1        0.0000
     75 H          -0.0430   -4.8990    0.5850 H       1  UNL1        0.0000
     76 H          -1.0190   -3.8210   -0.0380 H       1  UNL1        0.0000
     77 H           1.5160    3.6930   -3.8130 H       1  UNL1        0.0000
     78 H           0.8940    2.2830   -3.4860 H       1  UNL1        0.0000
     79 H           1.6800    2.5020   -4.8440 H       1  UNL1        0.0000
     80 H           5.2170    4.8630   -3.3830 H       1  UNL1        0.0000
     81 H           4.2150    6.1240   -4.7460 H       1  UNL1        0.0000
     82 H           3.0490    5.0160   -5.0120 H       1  UNL1        0.0000
     83 H          10.2540    3.6750   -1.1910 H       1  UNL1        0.0000
     84 H          11.1980    1.8120   -0.2070 H       1  UNL1        0.0000
     85 H          10.8610    0.4830    0.5870 H       1  UNL1        0.0000
     86 H          11.5940    2.1380    2.0820 H       1  UNL1        0.0000
     87 H          10.0840    1.7640    2.4150 H       1  UNL1        0.0000
     88 H          10.4150    3.1010    1.6180 H       1  UNL1        0.0000
     89 H           8.0190   -3.5890    3.8080 H       1  UNL1        0.0000
     90 H           8.8980   -2.3460    3.3600 H       1  UNL1        0.0000
     91 H           9.0190   -3.7240    2.5820 H       1  UNL1        0.0000
     92 H           3.1220   -4.4440    2.0970 H       1  UNL1        0.0000
     93 H           2.6800   -7.4700   -0.8320 H       1  UNL1        0.0000
     94 H           1.8730   -8.1220    0.3670 H       1  UNL1        0.0000
     95 H           3.4500   -8.2790    0.2950 H       1  UNL1        0.0000
     96 H          -2.9400   -3.0760    3.7490 H       1  UNL1        0.0000
     97 H          -3.9400   -4.0020    2.9190 H       1  UNL1        0.0000
     98 H          -4.0670   -1.6070    1.7470 H       1  UNL1        0.0000
     99 H          -5.3410   -2.8060    4.8830 H       1  UNL1        0.0000
    100 H          -6.7030   -2.0710    4.5930 H       1  UNL1        0.0000
    101 H          -5.5430   -1.3160    5.3570 H       1  UNL1        0.0000
    102 H          -5.1420    0.3810    2.3990 H       1  UNL1        0.0000
    103 H          -6.1280    0.3690    3.6250 H       1  UNL1        0.0000
    104 H          -7.7710   -0.6530    2.4370 H       1  UNL1        0.0000
    105 H          -6.7830   -1.0300    1.2570 H       1  UNL1        0.0000
    106 H          -6.7060    1.1930    0.5420 H       1  UNL1        0.0000
    107 H          -7.5540    1.6580    1.7920 H       1  UNL1        0.0000
    108 H          -9.2900    0.0950    0.7750 H       1  UNL1        0.0000
    109 H          -9.3050    0.1070   -1.5940 H       1  UNL1        0.0000
    110 H          -7.9850   -0.5950   -1.0680 H       1  UNL1        0.0000
    111 H          -7.9280    0.8930   -1.6130 H       1  UNL1        0.0000
    112 H          -9.3670    2.6360   -0.4590 H       1  UNL1        0.0000
    113 H          -9.4940    2.5720    1.1150 H       1  UNL1        0.0000
    114 H         -11.5110    1.6400    1.0820 H       1  UNL1        0.0000
    115 H         -11.3080    0.9800   -0.3360 H       1  UNL1        0.0000
    116 H         -11.5330    3.2560   -1.2590 H       1  UNL1        0.0000
    117 H         -12.0330    3.6770    0.1810 H       1  UNL1        0.0000
    118 H         -13.7180    1.8310   -0.1920 H       1  UNL1        0.0000
    119 H         -14.4250    1.5850   -2.4480 H       1  UNL1        0.0000
    120 H         -12.9250    1.1020   -2.2840 H       1  UNL1        0.0000
    121 H         -13.2350    2.5170   -2.9290 H       1  UNL1        0.0000
    122 H         -14.6070    4.1420   -1.5390 H       1  UNL1        0.0000
    123 H         -15.8320    2.7260    0.6130 H       1  UNL1        0.0000
    124 H         -16.9050    4.8870   -0.8770 H       1  UNL1        0.0000
    125 H         -16.8280    4.7590    0.6960 H       1  UNL1        0.0000
    126 H         -18.4510    2.8230    0.2570 H       1  UNL1        0.0000
    127 H         -20.2610    4.1780    0.8650 H       1  UNL1        0.0000
    128 H         -19.4130    5.4830    0.5540 H       1  UNL1        0.0000
    129 H         -18.9940    4.5310    1.7510 H       1  UNL1        0.0000
    130 H         -18.5470    3.0800   -2.0720 H       1  UNL1        0.0000
    131 H         -19.1350    4.5450   -1.9090 H       1  UNL1        0.0000
    132 H         -19.9900    3.2880   -1.4500 H       1  UNL1        0.0000
    133 H           1.8050   -4.0880   -0.6670 H       1  UNL1        0.0000
    134 H           0.4620   -1.9260   -1.7160 H       1  UNL1        0.0000
    135 H         -14.2050    4.3060   -0.0180 H       1  UNL1        0.0000
    136 H         -16.2230    2.4990   -0.9010 H       1  UNL1        0.0000
@<TRIPOS>UNITY_ATOM_ATTR
1 1
charge 2
17 1
charge -1
34 1
charge -1
@<TRIPOS>BOND
     1     1     6    1
     2     1    17    1
     3     1    25    1
     4     1    34    1
     5     2     7    1
     6     2    38    2
     7     2    42    1
     8     3    10    2
     9     3    18    1
    10     3    67    1
    11     4    21    1
    12     4    26    2
    13     4    68    1
    14     5    29    1
    15     5    35    2
    16     5    69    1
    17     6     7    2
    18     6    10    1
    19     7     8    1
    20     8     9    1
    21     8    12    1
    22     8   133    1
    23     9    10    1
    24     9    11    1
    25     9   134    1
    26    11    70    1
    27    11    71    1
    28    11    72    1
    29    12    13    1
    30    12    73    1
    31    12    74    1
    32    13    14    1
    33    13    75    1
    34    13    76    1
    35    14    15    2
    36    14    16    1
    37    16    47    1
    38    17    18    1
    39    17    21    1
    40    18    19    2
    41    19    20    1
    42    19    22    1
    43    20    21    2
    44    20    23    1
    45    22    77    1
    46    22    78    1
    47    22    79    1
    48    23    24    2
    49    23    80    1
    50    24    81    1
    51    24    82    1
    52    25    26    1
    53    25    29    2
    54    26    27    1
    55    27    28    2
    56    27    30    1
    57    28    29    1
    58    28    32    1
    59    30    31    2
    60    30    83    1
    61    32    33    1
    62    32    84    1
    63    32    85    1
    64    33    86    1
    65    33    87    1
    66    33    88    1
    67    34    35    1
    68    34    38    1
    69    35    36    1
    70    36    37    2
    71    36    39    1
    72    37    38    1
    73    37    40    1
    74    39    89    1
    75    39    90    1
    76    39    91    1
    77    40    41    2
    78    40    42    1
    79    42    43    1
    80    42    92    1
    81    43    44    2
    82    43    45    1
    83    45    46    1
    84    46    93    1
    85    46    94    1
    86    46    95    1
    87    47    48    1
    88    47    96    1
    89    47    97    1
    90    48    49    2
    91    48    98    1
    92    49    50    1
    93    49    51    1
    94    50    99    1
    95    50   100    1
    96    50   101    1
    97    51    52    1
    98    51   102    1
    99    51   103    1
   100    52    53    1
   101    52   104    1
   102    52   105    1
   103    53    54    1
   104    53   106    1
   105    53   107    1
   106    54    55    1
   107    54    56    1
   108    54   108    1
   109    55   109    1
   110    55   110    1
   111    55   111    1
   112    56    57    1
   113    56   112    1
   114    56   113    1
   115    57    58    1
   116    57   114    1
   117    57   115    1
   118    58    59    1
   119    58   116    1
   120    58   117    1
   121    59    60    1
   122    59    61    1
   123    59   118    1
   124    60   119    1
   125    60   120    1
   126    60   121    1
   127    61    62    1
   128    61   122    1
   129    61   135    1
   130    62    63    1
   131    62   123    1
   132    62   136    1
   133    63    64    1
   134    63   124    1
   135    63   125    1
   136    64    65    1
   137    64    66    1
   138    64   126    1
   139    65   127    1
   140    65   128    1
   141    65   129    1
   142    66   130    1
   143    66   131    1
   144    66   132    1
