@<TRIPOS>MOLECULE
cobalamin
 180 190 0 0 0
SMALL
GASTEIGER

@<TRIPOS>ATOM
      1 CO         -2.2250    1.5670   -1.0050 Co.oh   1  UNL1        0.0000
      2 N          -2.2870    1.4410    0.9190 N.2     1  UNL1        0.0000
      3 N          -4.1250    1.9630   -0.9500 N.2     1  UNL1        0.0000
      4 N          -2.1480    1.0470   -2.8600 N.pl3   1  UNL1       -1.0000
      5 N          -0.3530    1.0860   -0.7930 N.2     1  UNL1        0.0000
      6 C          -1.1910    0.6210    1.4970 C.3     1  UNL1        0.0000
      7 C          -1.6470   -0.7720    1.0340 C.3     1  UNL1        0.0000
      8 C          -1.3690    1.0190    3.0800 C.3     1  UNL1        0.0000
      9 C          -1.0500   -0.1820    4.0000 C.3     1  UNL1        0.0000
     10 C          -0.4620    2.2290    3.5380 C.3     1  UNL1        0.0000
     11 C          -0.4670    2.6730    4.9990 C.2     1  UNL1        0.0000
     12 O          -1.3280    3.4620    5.4080 O.2     1  UNL1        0.0000
     13 N           0.5020    2.2430    5.8080 N.am    1  UNL1        0.0000
     14 C          -2.8650    1.5310    3.1630 C.3     1  UNL1        0.0000
     15 C          -4.0260    0.6950    3.8000 C.3     1  UNL1        0.0000
     16 C          -4.8280   -0.3450    3.0040 C.3     1  UNL1        0.0000
     17 C          -6.0300   -0.8790    3.7610 C.2     1  UNL1        0.0000
     18 O          -7.1310   -0.3330    3.6260 O.2     1  UNL1        0.0000
     19 N          -5.8580   -1.9300    4.5550 N.am    1  UNL1        0.0000
     20 C          -3.1410    2.0100    1.7360 C.2     1  UNL1        0.0000
     21 C          -4.1890    2.8490    1.2970 C.2     1  UNL1        0.0000
     22 C          -4.7060    3.9100    2.2680 C.3     1  UNL1        0.0000
     23 C          -4.8190    2.6430    0.0340 C.2     1  UNL1        0.0000
     24 C          -6.2190    3.0240   -0.5240 C.3     1  UNL1        0.0000
     25 C          -7.3470    3.0160    0.5370 C.3     1  UNL1        0.0000
     26 C          -6.2370    4.3960   -1.3030 C.3     1  UNL1        0.0000
     27 C          -5.7650    5.6560   -0.5990 C.2     1  UNL1        0.0000
     28 O          -4.5710    5.9710   -0.6720 O.2     1  UNL1        0.0000
     29 N          -6.6390    6.3950    0.0820 N.am    1  UNL1        0.0000
     30 C          -6.4030    1.9000   -1.6100 C.3     1  UNL1        0.0000
     31 C          -7.0290    0.5290   -1.2200 C.3     1  UNL1        0.0000
     32 C          -7.3760   -0.4730   -2.3340 C.3     1  UNL1        0.0000
     33 C          -8.4030   -0.0010   -3.3490 C.2     1  UNL1        0.0000
     34 O          -9.5950    0.0530   -3.0260 O.2     1  UNL1        0.0000
     35 N          -7.9960    0.3420   -4.5670 N.am    1  UNL1        0.0000
     36 C          -4.9430    1.7190   -1.9940 C.2     1  UNL1        0.0000
     37 C          -4.5180    1.3200   -3.2470 C.2     1  UNL1        0.0000
     38 C          -3.2390    0.9780   -3.6800 C.2     1  UNL1        0.0000
     39 C          -2.8770    0.5470   -5.1070 C.3     1  UNL1        0.0000
     40 C          -3.9390   -0.3720   -5.7590 C.3     1  UNL1        0.0000
     41 C          -2.7170    1.8080   -5.9890 C.3     1  UNL1        0.0000
     42 C          -1.4990   -0.1190   -4.8040 C.3     1  UNL1        0.0000
     43 C          -1.3000   -1.6380   -4.5390 C.3     1  UNL1        0.0000
     44 C          -1.9950   -2.3260   -3.3540 C.3     1  UNL1        0.0000
     45 C          -1.9960   -3.8400   -3.4510 C.2     1  UNL1        0.0000
     46 O          -1.0760   -4.4870   -2.9380 O.2     1  UNL1        0.0000
     47 N          -2.9950   -4.4300   -4.0970 N.am    1  UNL1        0.0000
     48 C          -1.0410    0.6530   -3.5580 C.2     1  UNL1        0.0000
     49 C           0.2730    0.8420   -3.0800 C.2     1  UNL1        0.0000
     50 C           1.3880    0.9270   -4.1250 C.3     1  UNL1        0.0000
     51 C           0.5970    0.8500   -1.6730 C.2     1  UNL1        0.0000
     52 C           1.9070    0.5720   -0.8870 C.3     1  UNL1        0.0000
     53 C           2.8040    1.8450   -0.9920 C.3     1  UNL1        0.0000
     54 C           2.7270   -0.6620   -1.3890 C.3     1  UNL1        0.0000
     55 C           1.9810   -1.9640   -1.7400 C.3     1  UNL1        0.0000
     56 C           2.9260   -3.0860   -2.1080 C.2     1  UNL1        0.0000
     57 O           3.3230   -3.1810   -3.2790 O.2     1  UNL1        0.0000
     58 N           3.3040   -3.9490   -1.1470 N.am    1  UNL1        0.0000
     59 C           1.3910    0.3260    0.5910 C.3     1  UNL1        0.0000
     60 C           2.4210    0.5310    1.7410 C.3     1  UNL1        0.0000
     61 C           2.4500   -0.4590    2.8990 C.2     1  UNL1        0.0000
     62 O           2.3770   -0.0480    4.0630 O.2     1  UNL1        0.0000
     63 N           2.6410   -1.7500    2.6260 N.am    1  UNL1        0.0000
     64 C           0.0260    1.0820    0.6490 C.3     1  UNL1        0.0000
     65 C           4.2070   -5.0730   -1.3810 C.3     1  UNL1        0.0000
     66 C           4.5980   -5.8990   -0.1550 C.3     1  UNL1        0.0000
     67 C           5.6600   -6.9450   -0.4240 C.3     1  UNL1        0.0000
     68 O           5.0830   -4.9840    0.8670 O.3     1  UNL1        0.0000
     69 O           5.8150   -6.2680    2.9040 O.2     1  UNL1        0.0000
     70 O           3.3950   -5.4760    2.6800 O.co2   1  UNL1       -1.0000
     71 P           4.8450   -5.2470    2.4140 P.3     1  UNL1        0.0000
     72 O           5.2200   -3.8030    3.0180 O.3     1  UNL1        0.0000
     73 C           6.5210   -3.2280    2.9060 C.3     1  UNL1        0.0000
     74 C           6.5610   -2.0610    1.9000 C.3     1  UNL1        0.0000
     75 O           5.2560   -1.6640    1.5220 O.3     1  UNL1        0.0000
     76 C           7.3450   -0.9620    2.6170 C.3     1  UNL1        0.0000
     77 O           7.6830   -1.4450    3.9200 O.3     1  UNL1        0.0000
     78 C           6.8810   -2.5960    4.2520 C.3     1  UNL1        0.0000
     79 C           7.6560   -3.4610    5.2240 C.3     1  UNL1        0.0000
     80 O           6.8440   -4.4720    5.7970 O.3     1  UNL1        0.0000
     81 N           6.6350    0.3110    2.7390 N.ar    1  UNL1        0.0000
     82 C           6.5440    1.2790    1.7530 C.ar    1  UNL1        0.0000
     83 C           5.9300    0.7840    3.7990 C.ar    1  UNL1        0.0000
     84 N           5.4010    1.9650    3.5900 N.ar    1  UNL1        0.0000
     85 C           5.7690    2.3120    2.2920 C.ar    1  UNL1        0.0000
     86 C           5.4900    3.4490    1.5380 C.ar    1  UNL1        0.0000
     87 C           5.9820    3.5580    0.2510 C.ar    1  UNL1        0.0000
     88 C           5.6530    4.8080   -0.5450 C.3     1  UNL1        0.0000
     89 C           6.7690    2.5010   -0.3020 C.ar    1  UNL1        0.0000
     90 C           7.3250    2.5780   -1.7070 C.3     1  UNL1        0.0000
     91 C           7.0440    1.3700    0.4580 C.ar    1  UNL1        0.0000
     92 H          -0.9770   -1.4410    1.2700 H       1  UNL1        0.0000
     93 H          -1.7910   -0.7880    0.0680 H       1  UNL1        0.0000
     94 H          -2.4760   -1.0060    1.4610 H       1  UNL1        0.0000
     95 H          -1.2050    0.0580    4.9310 H       1  UNL1        0.0000
     96 H          -0.1240   -0.4440    3.8870 H       1  UNL1        0.0000
     97 H          -1.6180   -0.9390    3.7790 H       1  UNL1        0.0000
     98 H          -0.6960    3.0180    2.9870 H       1  UNL1        0.0000
     99 H           0.4740    2.0070    3.3180 H       1  UNL1        0.0000
    100 H           0.5160    2.4980    6.6580 H       1  UNL1        0.0000
    101 H           1.1390    1.7000    5.5070 H       1  UNL1        0.0000
    102 H          -2.8470    2.3740    3.6610 H       1  UNL1        0.0000
    103 H          -4.6820    1.3480    4.1370 H       1  UNL1        0.0000
    104 H          -3.6750    0.2390    4.5950 H       1  UNL1        0.0000
    105 H          -4.2500   -1.0870    2.7840 H       1  UNL1        0.0000
    106 H          -5.1340    0.0530    2.1770 H       1  UNL1        0.0000
    107 H          -6.5530   -2.2530    5.0020 H       1  UNL1        0.0000
    108 H          -5.0640   -2.3200    4.6530 H       1  UNL1        0.0000
    109 H          -3.9610    4.2930    2.7580 H       1  UNL1        0.0000
    110 H          -5.3260    3.5010    2.8920 H       1  UNL1        0.0000
    111 H          -5.1560    4.6150    1.7830 H       1  UNL1        0.0000
    112 H          -7.3370    3.8490    1.0430 H       1  UNL1        0.0000
    113 H          -7.2150    2.2710    1.1530 H       1  UNL1        0.0000
    114 H          -8.2180    2.9270    0.0990 H       1  UNL1        0.0000
    115 H          -7.1450    4.5580   -1.6080 H       1  UNL1        0.0000
    116 H          -5.6930    4.3060   -2.1010 H       1  UNL1        0.0000
    117 H          -6.3680    7.1330    0.4940 H       1  UNL1        0.0000
    118 H          -7.4940    6.1550    0.1310 H       1  UNL1        0.0000
    119 H          -6.8950    2.2580   -2.3960 H       1  UNL1        0.0000
    120 H          -7.8610    0.6960   -0.7270 H       1  UNL1        0.0000
    121 H          -6.4130    0.0810   -0.5960 H       1  UNL1        0.0000
    122 H          -7.7130   -1.2790   -1.9190 H       1  UNL1        0.0000
    123 H          -6.5620   -0.7090   -2.8010 H       1  UNL1        0.0000
    124 H          -8.5940    0.6210   -5.1600 H       1  UNL1        0.0000
    125 H          -7.1410    0.3000   -4.8100 H       1  UNL1        0.0000
    126 H          -5.1930    1.3210   -3.9050 H       1  UNL1        0.0000
    127 H          -4.7430    0.1440   -5.9720 H       1  UNL1        0.0000
    128 H          -4.1790   -1.0860   -5.1400 H       1  UNL1        0.0000
    129 H          -3.5790   -0.7640   -6.5800 H       1  UNL1        0.0000
    130 H          -2.3760    1.5570   -6.8710 H       1  UNL1        0.0000
    131 H          -2.0920    2.4300   -5.5680 H       1  UNL1        0.0000
    132 H          -3.5830    2.2520   -6.0920 H       1  UNL1        0.0000
    133 H          -0.8820    0.1160   -5.5440 H       1  UNL1        0.0000
    134 H          -0.3320   -1.7870   -4.4290 H       1  UNL1        0.0000
    135 H          -1.5610   -2.1210   -5.3570 H       1  UNL1        0.0000
    136 H          -2.9110   -2.0160   -3.3020 H       1  UNL1        0.0000
    137 H          -1.5470   -2.0670   -2.5360 H       1  UNL1        0.0000
    138 H          -3.0080   -5.3150   -4.1610 H       1  UNL1        0.0000
    139 H          -3.6550   -3.9610   -4.4690 H       1  UNL1        0.0000
    140 H           1.0350    1.2560   -4.9650 H       1  UNL1        0.0000
    141 H           1.7710    0.0450   -4.2600 H       1  UNL1        0.0000
    142 H           2.0780    1.5330   -3.8230 H       1  UNL1        0.0000
    143 H           2.9700    2.0570   -1.9190 H       1  UNL1        0.0000
    144 H           3.6630    1.6930   -0.5550 H       1  UNL1        0.0000
    145 H           2.3580    2.6040   -0.5690 H       1  UNL1        0.0000
    146 H           3.3950   -0.8850   -0.7100 H       1  UNL1        0.0000
    147 H           3.2260   -0.3960   -2.1870 H       1  UNL1        0.0000
    148 H           1.3870   -1.7990   -2.4860 H       1  UNL1        0.0000
    149 H           1.4360   -2.2410   -0.9910 H       1  UNL1        0.0000
    150 H           2.9930   -3.8270   -0.3340 H       1  UNL1        0.0000
    151 H           1.1220   -0.6280    0.6480 H       1  UNL1        0.0000
    152 H           2.2930    1.4240    2.1100 H       1  UNL1        0.0000
    153 H           3.3150    0.5200    1.3600 H       1  UNL1        0.0000
    154 H           2.6270   -2.3470    3.2830 H       1  UNL1        0.0000
    155 H           2.8120   -2.0230    1.7970 H       1  UNL1        0.0000
    156 H           5.0280   -4.7200   -1.7970 H       1  UNL1        0.0000
    157 H           3.7790   -5.6750   -2.0360 H       1  UNL1        0.0000
    158 H           3.7700   -6.3480    0.1610 H       1  UNL1        0.0000
    159 H           5.8570   -7.4230    0.3990 H       1  UNL1        0.0000
    160 H           6.4690   -6.5140   -0.7480 H       1  UNL1        0.0000
    161 H           5.3370   -7.5740   -1.0930 H       1  UNL1        0.0000
    162 H           3.2513   -6.4190    2.8562 H       1 UNL1 0.0000
    163 H           7.1820   -3.9110    2.6380 H       1  UNL1        0.0000
    164 H           7.0720   -2.3610    1.1050 H       1  UNL1        0.0000
    165 H           5.2820   -1.1800    0.8350 H       1  UNL1        0.0000
    166 H           8.1930   -0.8050    2.1240 H       1  UNL1        0.0000
    167 H           6.0500   -2.2890    4.6970 H       1  UNL1        0.0000
    168 H           8.0130   -2.8940    5.9380 H       1  UNL1        0.0000
    169 H           8.4180   -3.8760    4.7680 H       1  UNL1        0.0000
    170 H           7.3110   -4.9300    6.3330 H       1  UNL1        0.0000
    171 H           5.8400    0.3050    4.6020 H       1  UNL1        0.0000
    172 H           4.9660    4.1430    1.9060 H       1  UNL1        0.0000
    173 H           6.4720    5.2400   -0.8390 H       1  UNL1        0.0000
    174 H           5.1510    5.4350    0.0050 H       1  UNL1        0.0000
    175 H           5.1140    4.5720   -1.3200 H       1  UNL1        0.0000
    176 H           7.8820    1.8020   -1.8900 H       1  UNL1        0.0000
    177 H           7.8700    3.3770   -1.8050 H       1  UNL1        0.0000
    178 H           6.5960    2.5990   -2.3500 H       1  UNL1        0.0000
    179 H           7.5720    0.6660    0.0890 H       1  UNL1        0.0000
    180 H           0.2270    2.0100    0.9110 H       1  UNL1        0.0000
@<TRIPOS>UNITY_ATOM_ATTR
4 1
charge -1
70 1
charge -1
@<TRIPOS>BOND
     1     2     1    1
     2     2     6    1
     3     2    20    2
     4     3     1    1
     5     3    23    1
     6     3    36    2
     7     4     1    1
     8     4    38    1
     9     4    48    1
    10     5     1    1
    11     5    51    2
    12     5    64    1
    13     6     7    1
    14     6     8    1
    15     6    64    1
    16     7    92    1
    17     7    93    1
    18     7    94    1
    19     8     9    1
    20     8    10    1
    21     8    14    1
    22     9    95    1
    23     9    96    1
    24     9    97    1
    25    10    11    1
    26    10    98    1
    27    10    99    1
    28    11    12    2
    29    11    13   am
    30    13   100    1
    31    13   101    1
    32    14    15    1
    33    14    20    1
    34    14   102    1
    35    15    16    1
    36    15   103    1
    37    15   104    1
    38    16    17    1
    39    16   105    1
    40    16   106    1
    41    17    18    2
    42    17    19   am
    43    19   107    1
    44    19   108    1
    45    20    21    1
    46    21    22    1
    47    21    23    2
    48    22   109    1
    49    22   110    1
    50    22   111    1
    51    23    24    1
    52    24    25    1
    53    24    26    1
    54    24    30    1
    55    25   112    1
    56    25   113    1
    57    25   114    1
    58    26    27    1
    59    26   115    1
    60    26   116    1
    61    27    28    2
    62    27    29   am
    63    29   117    1
    64    29   118    1
    65    30    31    1
    66    30    36    1
    67    30   119    1
    68    31    32    1
    69    31   120    1
    70    31   121    1
    71    32    33    1
    72    32   122    1
    73    32   123    1
    74    33    34    2
    75    33    35   am
    76    35   124    1
    77    35   125    1
    78    36    37    1
    79    37    38    2
    80    37   126    1
    81    38    39    1
    82    39    40    1
    83    39    41    1
    84    39    42    1
    85    40   127    1
    86    40   128    1
    87    40   129    1
    88    41   130    1
    89    41   131    1
    90    41   132    1
    91    42    43    1
    92    42    48    1
    93    42   133    1
    94    43    44    1
    95    43   134    1
    96    43   135    1
    97    44    45    1
    98    44   136    1
    99    44   137    1
   100    45    46    2
   101    45    47   am
   102    47   138    1
   103    47   139    1
   104    48    49    2
   105    49    50    1
   106    49    51    1
   107    50   140    1
   108    50   141    1
   109    50   142    1
   110    51    52    1
   111    52    53    1
   112    52    54    1
   113    52    59    1
   114    53   143    1
   115    53   144    1
   116    53   145    1
   117    54    55    1
   118    54   146    1
   119    54   147    1
   120    55    56    1
   121    55   148    1
   122    55   149    1
   123    56    57    2
   124    56    58   am
   125    58    65    1
   126    58   150    1
   127    59    60    1
   128    59    64    1
   129    59   151    1
   130    60    61    1
   131    60   152    1
   132    60   153    1
   133    61    62    2
   134    61    63   am
   135    63   154    1
   136    63   155    1
   137    64   180    1
   138    65    66    1
   139    65   156    1
   140    65   157    1
   141    66    67    1
   142    66    68    1
   143    66   158    1
   144    67   159    1
   145    67   160    1
   146    67   161    1
   147    68    71    1
   148    69    71    2
   149    70    71    1
   150    70   162    1
   151    71    72    1
   152    72    73    1
   153    73    74    1
   154    73    78    1
   155    73   163    1
   156    74    75    1
   157    74    76    1
   158    74   164    1
   159    75   165    1
   160    76    77    1
   161    76    81    1
   162    76   166    1
   163    77    78    1
   164    78    79    1
   165    78   167    1
   166    79    80    1
   167    79   168    1
   168    79   169    1
   169    80   170    1
   170    81    82   ar
   171    81    83   ar
   172    82    85   ar
   173    82    91   ar
   174    83    84   ar
   175    83   171    1
   176    84    85   ar
   177    85    86   ar
   178    86    87   ar
   179    86   172    1
   180    87    88    1
   181    87    89   ar
   182    88   173    1
   183    88   174    1
   184    88   175    1
   185    89    90    1
   186    89    91   ar
   187    90   176    1
   188    90   177    1
   189    90   178    1
   190    91   179    1
