@<TRIPOS>MOLECULE
coenzyme_b
 43 42 0 0 0
SMALL
GASTEIGER

@<TRIPOS>ATOM
      1 S          -9.3010    1.4651    0.5642 S.3     0  UNK0       -0.1783
      2 P           4.7316    1.6379    0.2656 P.3     1  UNK1        0.4727
      3 O           3.4502    0.6584    0.3370 O.3     1  UNK1       -0.2813
      4 O          -0.7415   -1.9838   -0.9764 O.2     0  UNK0       -0.2758
      5 O           2.8513   -3.1263    0.2936 O.3     1  UNK1       -0.4793
      6 O           2.0445   -1.6763    1.8415 O.2     1  UNK1       -0.2488
      7 O           4.8231    2.2097    1.7755 O.3     1  UNK1       -0.3026
      8 O           5.9883    0.6241    0.1751 O.3     1  UNK1       -0.3026
      9 O           4.6742    2.6862   -0.8068 O.2     1  UNK1       -0.2275
     10 N           0.7382   -0.3588   -0.2217 N.am    1  UNK1       -0.3004
     11 C          -4.1440    0.4582    0.0985 C.3     0  UNK0       -0.0526
     12 C          -3.0158   -0.4825   -0.3326 C.3     0  UNK0       -0.0448
     13 C           1.9632   -1.0658   -0.5175 C.3     1  UNK1        0.1469
     14 C          -5.5411   -0.1130   -0.1542 C.3     0  UNK0       -0.0523
     15 C          -1.6207    0.0761   -0.0578 C.3     0  UNK0        0.0240
     16 C           3.1389   -0.1288   -0.8117 C.3     1  UNK1        0.0959
     17 C          -6.6302    0.8760    0.2727 C.3     0  UNK0       -0.0442
     18 C          -0.5203   -0.8831   -0.4788 C.2     0  UNK0        0.2137
     19 C           2.8701    0.8028   -1.9877 C.3     1  UNK1       -0.0358
     20 C           2.2610   -1.9618    0.6708 C.2     1  UNK1        0.3278
     21 C          -8.0198    0.2859    0.0508 C.3     0  UNK0       -0.0093
     22 H          -4.0389    1.4096   -0.4376 H       0  UNK0        0.0265
     23 H          -4.0340    0.6829    1.1667 H       0  UNK0        0.0265
     24 H          -3.1169   -0.6985   -1.4038 H       0  UNK0        0.0270
     25 H          -3.1311   -1.4418    0.1880 H       0  UNK0        0.0270
     26 H           1.7708   -1.7078   -1.3863 H       1  UNK1        0.0641
     27 H          -5.6543   -0.3486   -1.2193 H       0  UNK0        0.0266
     28 H          -5.6564   -1.0525    0.3997 H       0  UNK0        0.0266
     29 H           4.0156   -0.7472   -1.0407 H       1  UNK1        0.0623
     30 H          -1.4826    1.0188   -0.6003 H       0  UNK0        0.0358
     31 H          -1.5060    0.2818    1.0130 H       0  UNK0        0.0358
     32 H           0.8099    0.5365    0.2536 H       1  UNK1        0.1496
     33 H          -6.5179    1.8049   -0.3007 H       0  UNK0        0.0273
     34 H          -6.4926    1.1261    1.3323 H       0  UNK0        0.0273
     35 H           3.8042    1.1636   -2.4274 H       1  UNK1        0.0255
     36 H           2.3449    0.2744   -2.7909 H       1  UNK1        0.0255
     37 H           2.2717    1.6714   -1.6936 H       1  UNK1        0.0255
     38 H          -8.1456   -0.6357    0.6279 H       0  UNK0        0.0374
     39 H          -8.1728    0.0481   -1.0067 H       0  UNK0        0.0374
     40 H           3.0625   -3.6952    1.0643 H       1  UNK1        0.2951
     41 H          -8.9531    1.5192    1.8584 H       0  UNK0        0.1016
     42 H           5.4777    2.9116    1.9782 H       1  UNK1        0.2220
     43 H           6.8892    0.9944    0.0600 H       1  UNK1        0.2220
@<TRIPOS>BOND
     1     1    21    1
     2     1    41    1
     3     2     3    1
     4     2     7    1
     5     2     8    1
     6     2     9    2
     7     3    16    1
     8     4    18    2
     9     5    20    1
    10     5    40    1
    11     6    20    2
    12     7    42    1
    13     8    43    1
    14    10    13    1
    15    10    18   am
    16    10    32    1
    17    11    12    1
    18    11    14    1
    19    11    22    1
    20    11    23    1
    21    12    15    1
    22    12    24    1
    23    12    25    1
    24    13    16    1
    25    13    20    1
    26    13    26    1
    27    14    17    1
    28    14    27    1
    29    14    28    1
    30    15    18    1
    31    15    30    1
    32    15    31    1
    33    16    19    1
    34    16    29    1
    35    17    21    1
    36    17    33    1
    37    17    34    1
    38    19    35    1
    39    19    36    1
    40    19    37    1
    41    21    38    1
    42    21    39    1
