@<TRIPOS>MOLECULE
coenzyme_f430
 113 122 0 0 0
SMALL
GASTEIGER

@<TRIPOS>ATOM
      1 NI         30.6370   31.4950   -6.3660 Ni      1  UNL1        0.0000
      2 N          31.7270   32.4460   -7.9720 N.2     1  UNL1        0.0000
      3 C          31.6030   30.4400   -9.2460 C.3     1  UNL1        0.0000
      4 C          32.1430   31.8250   -9.0080 C.2     1  UNL1        0.0000
      5 C          33.1680   32.6110   -9.8640 C.3     1  UNL1        0.0000
      6 C          33.4490   33.8260   -8.8320 C.3     1  UNL1        0.0000
      7 C          32.0820   33.8700   -8.0900 C.3     1  UNL1        0.0000
      8 C          32.4790   33.0420  -11.2060 C.3     1  UNL1        0.0000
      9 C          33.2290   33.9750  -12.1450 C.2     1  UNL1        0.0000
     10 O          33.9560   33.4960  -13.0230 O.2     1  UNL1        0.0000
     11 N          33.0700   35.2910  -12.0180 N.am    1  UNL1        0.0000
     12 C          34.3790   31.7030  -10.1980 C.3     1  UNL1        0.0000
     13 C          34.7540   33.9050   -8.0140 C.3     1  UNL1        0.0000
     14 C          35.9020   34.6910   -8.6550 C.3     1  UNL1        0.0000
     15 C          37.1940   34.6270   -7.8590 C.2     1  UNL1        0.0000
     16 O          37.3270   35.4050   -6.8920 O.co2   1  UNL1       -0.5000
     17 O          38.0590   33.7980   -8.2110 O.2     1  UNL1       -0.5000
     18 N          30.2900   33.3870   -5.4470 N.2     1  UNL1        0.0000
     19 C          31.8870   34.6170   -6.7350 C.3     1  UNL1        0.0000
     20 C          30.5140   34.7300   -6.0250 C.3     1  UNL1        0.0000
     21 C          30.2850   35.7270   -4.8220 C.3     1  UNL1        0.0000
     22 C          30.6090   34.7910   -3.5980 C.3     1  UNL1        0.0000
     23 C          30.0970   33.4700   -4.1640 C.2     1  UNL1        0.0000
     24 N          29.4260   35.0690   -6.9570 N.am    1  UNL1        0.0000
     25 C          28.4960   35.8720   -6.4370 C.2     1  UNL1        0.0000
     26 O          27.5380   36.3330   -7.0670 O.2     1  UNL1        0.0000
     27 C          28.7880   36.0760   -4.9810 C.3     1  UNL1        0.0000
     28 C          31.0870   37.0560   -4.8420 C.3     1  UNL1        0.0000
     29 C          32.0370   34.5600   -2.9970 C.3     1  UNL1        0.0000
     30 C          32.1200   34.1880   -1.5140 C.3     1  UNL1        0.0000
     31 C          33.4880   33.6880   -1.0840 C.2     1  UNL1        0.0000
     32 O          34.3550   34.5360   -0.7860 O.2     1  UNL1       -0.5000
     33 O          33.6790   32.4540   -1.0510 O.co2   1  UNL1       -0.5000
     34 N          29.6180   30.5290   -4.8630 N.pl3   1  UNL1       -1.0000
     35 C          29.5340   32.4730   -3.3830 C.2     1  UNL1        0.0000
     36 C          29.1990   31.1770   -3.7440 C.2     1  UNL1        0.0000
     37 C          28.2090   30.3400   -2.9550 C.3     1  UNL1        0.0000
     38 C          28.6000   28.9190   -3.4350 C.3     1  UNL1        0.0000
     39 C          29.2550   29.2090   -4.7710 C.2     1  UNL1        0.0000
     40 C          26.7530   30.7700   -3.2050 C.3     1  UNL1        0.0000
     41 C          25.7550   30.1680   -2.2310 C.2     1  UNL1        0.0000
     42 O          25.5150   30.8170   -1.1910 O.2     1  UNL1       -0.5000
     43 O          25.2500   29.0690   -2.5430 O.co2   1  UNL1       -0.5000
     44 C          29.5020   28.0900   -2.4930 C.3     1  UNL1        0.0000
     45 C          28.7680   27.2290   -1.4630 C.3     1  UNL1        0.0000
     46 C          29.6920   26.5330   -0.4810 C.2     1  UNL1        0.0000
     47 O          30.0080   27.1440    0.5620 O.co2   1  UNL1       -0.5000
     48 O          30.0900   25.3830   -0.7630 O.2     1  UNL1       -0.5000
     49 N          31.0400   29.5580   -7.0790 N.2     1  UNL1        0.0000
     50 C          29.5820   28.1580   -5.8000 C.2     1  UNL1        0.0000
     51 C          30.2990   26.1670   -7.9190 C.3     1  UNL1        0.0000
     52 C          29.4350   25.6950   -6.7480 C.3     1  UNL1        0.0000
     53 C          28.8820   26.7970   -5.8840 C.2     1  UNL1        0.0000
     54 O          27.8680   26.5560   -5.2380 O.2     1  UNL1        0.0000
     55 C          33.5130   27.3950   -8.8680 C.3     1  UNL1        0.0000
     56 C          33.5430   26.0460   -9.5660 C.2     1  UNL1        0.0000
     57 O          33.5440   26.0540  -10.8150 O.2     1  UNL1       -0.5000
     58 O          33.5650   25.0310   -8.8390 O.co2   1  UNL1       -0.5000
     59 C          30.5640   28.4080   -6.7660 C.2     1  UNL1        0.0000
     60 C          31.2790   27.2530   -7.4700 C.3     1  UNL1        0.0000
     61 C          32.0990   27.9370   -8.5940 C.3     1  UNL1        0.0000
     62 C          32.0170   29.4170   -8.1860 C.3     1  UNL1        0.0000
     63 H          31.4370   34.3190   -8.6870 H       1  UNL1        0.0000
     64 H          31.8960   30.1250  -10.1270 H       1  UNL1        0.0000
     65 H          30.6230   30.4850   -9.2750 H       1  UNL1        0.0000
     66 H          32.9060   29.6760   -7.8350 H       1  UNL1        0.0000
     67 H          33.4310   34.6600   -9.3680 H       1  UNL1        0.0000
     68 H          31.6340   33.4650  -10.9880 H       1  UNL1        0.0000
     69 H          32.2620   32.2370  -11.7050 H       1  UNL1        0.0000
     70 H          34.1180   31.0180  -10.8460 H       1  UNL1        0.0000
     71 H          34.6930   31.2620   -9.3860 H       1  UNL1        0.0000
     72 H          35.1000   32.2430  -10.5740 H       1  UNL1        0.0000
     73 H          35.0660   32.9960   -7.8220 H       1  UNL1        0.0000
     74 H          34.5660   34.3230   -7.1500 H       1  UNL1        0.0000
     75 H          32.2130   35.5300   -6.8730 H       1  UNL1        0.0000
     76 H          32.4990   34.2150   -6.0830 H       1  UNL1        0.0000
     77 H          33.5000   35.8440  -12.5620 H       1  UNL1        0.0000
     78 H          32.5350   35.6250  -11.3890 H       1  UNL1        0.0000
     79 H          35.6350   35.6310   -8.7440 H       1  UNL1        0.0000
     80 H          36.0710   34.3420   -9.5570 H       1  UNL1        0.0000
     81 H          37.8086   36.1942   -7.1855 H       1 UNL1 0.0000
     82 H          29.3610   34.7580   -7.7580 H       1  UNL1        0.0000
     83 H          30.0210   35.0720   -2.8510 H       1  UNL1        0.0000
     84 H          28.6070   37.0050   -4.7210 H       1  UNL1        0.0000
     85 H          28.2220   35.4900   -4.4350 H       1  UNL1        0.0000
     86 H          30.8710   37.5870   -4.0580 H       1  UNL1        0.0000
     87 H          30.8760   37.5650   -5.6440 H       1  UNL1        0.0000
     88 H          32.0400   36.8820   -4.8440 H       1  UNL1        0.0000
     89 H          32.5710   35.3750   -3.1290 H       1  UNL1        0.0000
     90 H          32.4810   33.8460   -3.5190 H       1  UNL1        0.0000
     91 H          29.3580   32.7070   -2.4830 H       1  UNL1        0.0000
     92 H          31.4580   33.4900   -1.3180 H       1  UNL1        0.0000
     93 H          31.8900   34.9750   -0.9750 H       1  UNL1        0.0000
     94 H          34.5524   32.2595   -1.4255 H       1 UNL1 0.0000
     95 H          28.3750   30.4420   -1.9830 H       1  UNL1        0.0000
     96 H          27.7610   28.4130   -3.6010 H       1  UNL1        0.0000
     97 H          26.4950   30.5170   -4.1180 H       1  UNL1        0.0000
     98 H          26.6970   31.7480   -3.1440 H       1  UNL1        0.0000
     99 H          30.1080   28.7020   -2.0120 H       1  UNL1        0.0000
    100 H          30.0660   27.4970   -3.0410 H       1  UNL1        0.0000
    101 H          24.6620   28.7520   -2.0030 H       1  UNL1        0.0000
    102 H          28.2410   26.5480   -1.9340 H       1  UNL1        0.0000
    103 H          28.1420   27.7920   -0.9580 H       1  UNL1        0.0000
    104 H          29.3387   27.8214    0.7462 H       1 UNL1 0.0000
    105 H          29.7270   26.5130   -8.6220 H       1  UNL1        0.0000
    106 H          30.7920   25.4150   -8.2830 H       1  UNL1        0.0000
    107 H          29.9790   25.0860   -6.1810 H       1  UNL1        0.0000
    108 H          28.6780   25.1640   -7.1110 H       1  UNL1        0.0000
    109 H          31.9120   26.8590   -6.8140 H       1  UNL1        0.0000
    110 H          33.9950   28.0380   -9.4210 H       1  UNL1        0.0000
    111 H          33.9900   27.3190   -8.0200 H       1  UNL1        0.0000
    112 H          31.6030   27.8290   -9.4460 H       1  UNL1        0.0000
    113 H          33.5190   24.3140   -9.4690 H       1  UNL1        0.0000
@<TRIPOS>UNITY_ATOM_ATTR
16 1
charge -1
33 1
charge -1
34 1
charge -1
43 1
charge -1
47 1
charge -1
58 1
charge -1
@<TRIPOS>BOND
     1     1     2    1
     2     1    18    1
     3     1    34    1
     4     1    49    1
     5     2     4    2
     6     2     7    1
     7     3     4    1
     8     3    62    1
     9     3    64    1
    10     3    65    1
    11     4     5    1
    12     5     6    1
    13     5     8    1
    14     5    12    1
    15     6     7    1
    16     6    13    1
    17     6    67    1
    18     7    19    1
    19     7    63    1
    20     8     9    1
    21     8    68    1
    22     8    69    1
    23     9    10    2
    24     9    11   am
    25    11    77    1
    26    11    78    1
    27    12    70    1
    28    12    71    1
    29    12    72    1
    30    13    14    1
    31    13    73    1
    32    13    74    1
    33    14    15    1
    34    14    79    1
    35    14    80    1
    36    15    16    1
    37    15    17    2
    38    16    81    1
    39    18    20    1
    40    18    23    2
    41    19    20    1
    42    19    75    1
    43    19    76    1
    44    20    21    1
    45    20    24    1
    46    21    22    1
    47    21    27    1
    48    21    28    1
    49    22    23    1
    50    22    29    1
    51    22    83    1
    52    23    35    1
    53    24    25   am
    54    24    82    1
    55    25    26    2
    56    25    27    1
    57    27    84    1
    58    27    85    1
    59    28    86    1
    60    28    87    1
    61    28    88    1
    62    29    30    1
    63    29    89    1
    64    29    90    1
    65    30    31    1
    66    30    92    1
    67    30    93    1
    68    31    32    2
    69    31    33    1
    70    33    94    1
    71    34    36    1
    72    34    39    1
    73    35    36    2
    74    35    91    1
    75    36    37    1
    76    37    38    1
    77    37    40    1
    78    37    95    1
    79    38    39    1
    80    38    44    1
    81    38    96    1
    82    39    50    2
    83    40    41    1
    84    40    97    1
    85    40    98    1
    86    41    42    2
    87    41    43    1
    88    43   101    1
    89    44    45    1
    90    44    99    1
    91    44   100    1
    92    45    46    1
    93    45   102    1
    94    45   103    1
    95    46    47    1
    96    46    48    2
    97    47   104    1
    98    49    59    2
    99    49    62    1
   100    50    53    1
   101    50    59    1
   102    51    52    1
   103    51    60    1
   104    51   105    1
   105    51   106    1
   106    52    53    1
   107    52   107    1
   108    52   108    1
   109    53    54    2
   110    55    56    1
   111    55    61    1
   112    55   110    1
   113    55   111    1
   114    56    57    2
   115    56    58    1
   116    58   113    1
   117    59    60    1
   118    60    61    1
   119    60   109    1
   120    61    62    1
   121    61   112    1
   122    62    66    1
