@<TRIPOS>MOLECULE
coenzyme_f420
 89 91 0 0 0
SMALL
GASTEIGER

@<TRIPOS>ATOM
      1 P           3.0217    1.1760    0.4779 P.3     0  UNK0        0.4757
      2 O           1.8945    6.8047    4.4451 O.3     0  UNK0       -0.3874
      3 O           0.3387    4.4731    3.9483 O.3     0  UNK0       -0.3865
      4 O           3.3597    3.8423    2.0237 O.3     0  UNK0       -0.3868
      5 O           1.7146    1.3465    1.3845 O.3     0  UNK0       -0.2840
      6 O           2.8236    2.1037   -0.8253 O.3     0  UNK0       -0.2742
      7 O           4.9683    8.5046    9.7809 O.2     0  UNK0       -0.2670
      8 O           0.7846    8.3229    8.1119 O.2     0  UNK0       -0.2466
      9 O           7.5873    2.7273    4.4794 O.2     0  UNK0       -0.2878
     10 O           2.9022   -0.3204   -0.0656 O.3     0  UNK0       -0.3025
     11 O           4.3140    1.3963    1.1847 O.2     0  UNK0       -0.2273
     12 O           4.0374    2.9627   -4.0214 O.2     0  UNK0       -0.2729
     13 O           4.1214    7.0084   -7.1539 O.2     1  UNK1       -0.2758
     14 O           1.5548    6.3947   -1.7201 O.3     1  UNK1       -0.4793
     15 O           2.0181    7.8616   -3.3254 O.2     1  UNK1       -0.2489
     16 O           4.4163    9.3699   -8.1535 O.3     1  UNK1       -0.4793
     17 O           5.1931   11.2445   -7.2082 O.2     1  UNK1       -0.2489
     18 O           9.3237   10.1423   -4.7726 O.3     1  UNK1       -0.4806
     19 O           8.0967    8.9232   -3.3233 O.2     1  UNK1       -0.2510
     20 N           4.0144    5.5201    6.1486 N.ar    0  UNK0       -0.3234
     21 N           2.3968    7.0342    7.1743 N.ar    0  UNK0       -0.2933
     22 N           2.8387    8.2866    9.0557 N.ar    0  UNK0       -0.2745
     23 N           3.0503    4.4417   -2.5930 N.am    1  UNK1       -0.3002
     24 N           3.4260    8.4602   -5.5669 N.am    1  UNK1       -0.3023
     25 C           2.5284    5.5507    4.1007 C.3     0  UNK0        0.1014
     26 C           2.9172    4.8215    5.4053 C.3     0  UNK0        0.0537
     27 C           1.5397    4.7225    3.2201 C.3     0  UNK0        0.1106
     28 C           2.1702    3.4185    2.6870 C.3     0  UNK0        0.1073
     29 C           3.6675    6.5195    7.1035 C.ar    0  UNK0        0.1281
     30 C           5.3564    5.0461    6.0731 C.ar    0  UNK0        0.0543
     31 C           4.5814    6.9901    7.9794 C.ar    0  UNK0        0.0806
     32 C           6.3487    5.6130    7.0227 C.ar    0  UNK0       -0.0004
     33 C           1.2186    2.6216    1.7708 C.3     0  UNK0        0.0875
     34 C           5.9539    6.5358    7.9229 C.ar    0  UNK0       -0.0368
     35 C           5.8145    4.1065    5.2179 C.ar    0  UNK0        0.0092
     36 C           4.1682    7.9861    9.0094 C.ar    0  UNK0        0.2632
     37 C           7.7449    5.1916    7.0154 C.ar    0  UNK0       -0.0490
     38 C           1.9390    7.9015    8.1141 C.ar    0  UNK0        0.3282
     39 C           7.2194    3.6260    5.2276 C.ar    0  UNK0        0.1810
     40 C           8.1689    4.2515    6.1711 C.ar    0  UNK0       -0.0143
     41 C           2.9909    5.5984   -3.5215 C.3     1  UNK1        0.1207
     42 C           2.4310    5.2468   -4.9135 C.3     1  UNK1       -0.0159
     43 C           2.1501    6.3930   -5.8921 C.3     1  UNK1        0.0262
     44 C           3.9519    2.3106   -1.6705 C.3     0  UNK0        0.1429
     45 C           4.4932    9.4800   -5.6906 C.3     1  UNK1        0.1207
     46 C           3.6655    3.2409   -2.8839 C.2     0  UNK0        0.2429
     47 C           3.3425    7.2729   -6.2420 C.2     1  UNK1        0.2137
     48 C           5.8168    9.0335   -5.0407 C.3     1  UNK1       -0.0140
     49 C           2.1637    6.7282   -2.8736 C.2     1  UNK1        0.3253
     50 C           4.5359    0.9872   -2.1773 C.3     0  UNK0       -0.0295
     51 C           6.9587   10.0602   -5.1336 C.3     1  UNK1        0.0470
     52 C           4.6997   10.1280   -7.0785 C.2     1  UNK1        0.3253
     53 C           8.1519    9.6317   -4.3211 C.2     1  UNK1        0.3048
     54 H           3.4296    5.7978    3.5263 H       0  UNK0        0.0638
     55 H           2.0373    4.7395    6.0554 H       0  UNK0        0.0519
     56 H           3.2072    3.7871    5.2125 H       0  UNK0        0.0519
     57 H           1.2723    5.3567    2.3624 H       0  UNK0        0.0646
     58 H           2.4520    2.7543    3.5107 H       0  UNK0        0.0643
     59 H           0.9638    3.1855    0.8692 H       0  UNK0        0.0592
     60 H           0.2852    2.4193    2.3102 H       0  UNK0        0.0592
     61 H           6.6494    6.9759    8.6312 H       0  UNK0        0.0633
     62 H           1.7499    6.8237    6.4180 H       0  UNK0        0.1718
     63 H           5.2002    3.6213    4.4720 H       0  UNK0        0.0677
     64 H           1.3773    7.1055    3.6797 H       0  UNK0        0.2100
     65 H          -0.4144    4.5105    3.3323 H       0  UNK0        0.2100
     66 H           8.4403    5.6596    7.7072 H       0  UNK0        0.0625
     67 H           3.4104    3.4909    1.1243 H       0  UNK0        0.2100
     68 H           2.5358    8.9646    9.7347 H       0  UNK0        0.1734
     69 H           9.1927    3.9087    6.1432 H       0  UNK0        0.0656
     70 H           4.0200    5.9667   -3.6122 H       1  UNK1        0.0614
     71 H           3.1284    4.5722   -5.4201 H       1  UNK1        0.0293
     72 H           1.4986    4.6800   -4.7842 H       1  UNK1        0.0293
     73 H           1.8007    5.9548   -6.8379 H       1  UNK1        0.0359
     74 H           1.3134    7.0113   -5.5502 H       1  UNK1        0.0359
     75 H           4.7224    2.8268   -1.0844 H       0  UNK0        0.0696
     76 H           4.0980   10.3060   -5.0817 H       1  UNK1        0.0614
     77 H           2.7698    4.6194   -1.6344 H       1  UNK1        0.1496
     78 H           5.6140    8.8255   -3.9813 H       1  UNK1        0.0294
     79 H           6.1575    8.0844   -5.4719 H       1  UNK1        0.0294
     80 H           2.8061    8.5697   -4.7628 H       1  UNK1        0.1495
     81 H           5.3342    1.1428   -2.9099 H       0  UNK0        0.0259
     82 H           4.9719    0.4062   -1.3592 H       0  UNK0        0.0259
     83 H           3.7575    0.3693   -2.6387 H       0  UNK0        0.0259
     84 H           7.2758   10.1593   -6.1784 H       1  UNK1        0.0378
     85 H           6.6430   11.0407   -4.7624 H       1  UNK1        0.0378
     86 H           3.6910   -0.8337    0.1932 H       0  UNK0        0.2220
     87 H           1.0330    7.1971   -1.5016 H       1  UNK1        0.2951
     88 H           4.2346    8.4262   -7.9309 H       1  UNK1        0.2951
     89 H           9.2423   10.7065   -5.5660 H       1  UNK1        0.2951
@<TRIPOS>BOND
     1     1     5    1
     2     1     6    1
     3     1    10    1
     4     1    11    2
     5    25     2    1
     6     2    64    1
     7    27     3    1
     8     3    65    1
     9    28     4    1
    10     4    67    1
    11     5    33    1
    12     7    36    2
    13     8    38    2
    14     9    39    2
    15    10    86    1
    16    12    46    2
    17    13    47    2
    18    14    49    1
    19    14    87    1
    20    15    49    2
    21    16    52    1
    22    16    88    1
    23    17    52    2
    24    18    53    1
    25    18    89    1
    26    19    53    2
    27    20    26    1
    28    20    29   ar
    29    20    30   ar
    30    21    29   ar
    31    21    38   ar
    32    21    62    1
    33    22    36   ar
    34    22    38   ar
    35    22    68    1
    36    41    23    1
    37    23    46   am
    38    23    77    1
    39    45    24    1
    40    24    47   am
    41    24    80    1
    42    25    26    1
    43    25    27    1
    44    25    54    1
    45    26    55    1
    46    26    56    1
    47    27    28    1
    48    27    57    1
    49    28    33    1
    50    28    58    1
    51    29    31   ar
    52    30    32    1
    53    30    35   ar
    54    31    34   ar
    55    31    36   ar
    56    32    34   ar
    57    32    37   ar
    58    33    59    1
    59    33    60    1
    60    34    61    1
    61    35    39   ar
    62    35    63    1
    63    37    40   ar
    64    37    66    1
    65    39    40   ar
    66    40    69    1
    67    41    42    1
    68    41    49    1
    69    41    70    1
    70    42    43    1
    71    42    71    1
    72    42    72    1
    73    43    47    1
    74    43    73    1
    75    43    74    1
    76    44    50    1
    77    44    75    1
    78    45    48    1
    79    45    52    1
    80    45    76    1
    81    48    51    1
    82    48    78    1
    83    48    79    1
    84    50    81    1
    85    50    82    1
    86    50    83    1
    87    51    53    1
    88    51    84    1
    89    51    85    1
    90    44    46    1
    91    44     6    1
