@<TRIPOS>MOLECULE
coenzyme_a
 84 86 0 0 0
SMALL
GASTEIGER

@<TRIPOS>ATOM
      1 S           9.7169    1.7274    3.6685 S.3     1  UNL1       -0.1767
      2 P          -4.7191   -4.7561   -5.5085 P.3     1  UNL1        0.4728
      3 P           0.3050   -5.8735   -3.8399 P.3     1  UNL1        0.4835
      4 P          -0.3678   -3.3346   -2.5867 P.3     1  UNL1        0.4834
      5 O          -3.1344   -9.3839   -4.5121 O.3     1  UNL1       -0.3456
      6 O          -3.4347   -5.9151   -5.5106 O.3     1  UNL1       -0.2780
      7 O          -5.1338   -7.9701   -6.4961 O.3     1  UNL1       -0.3846
      8 O          -0.5774   -6.8087   -4.8013 O.3     1  UNL1       -0.2837
      9 O           0.8472   -4.2740   -1.7903 O.3     1  UNL1       -0.2857
     10 O          -0.7197   -4.7418   -3.3516 O.3     1  UNL1       -0.1861
     11 O          -3.5807   -3.6350   -5.8594 O.3     1  UNL1       -0.3026
     12 O          -5.0403   -5.2035   -7.0413 O.3     1  UNL1       -0.3026
     13 O          -5.8686   -3.7188   -5.5066 O.2     1  UNL1       -0.2275
     14 O           4.7619   -4.1767    1.1556 O.3     1  UNL1       -0.3820
     15 O           1.3225   -5.1578   -4.8486 O.3     1  UNL1       -0.3022
     16 O           1.0366   -6.6987   -2.8254 O.2     1  UNL1       -0.2269
     17 O          -1.2822   -3.5794   -1.2426 O.3     1  UNL1       -0.3022
     18 O           4.4756   -2.0483   -1.7083 O.2     1  UNL1       -0.2730
     19 O          -1.4553   -2.4939   -3.2996 O.2     1  UNL1       -0.2269
     20 O           6.3749   -0.6201    2.4114 O.2     1  UNL1       -0.2758
     21 N          -5.0269   -9.4982   -3.1261 N.ar    1  UNL1       -0.2855
     22 N          -4.9900  -10.0400   -0.9541 N.ar    1  UNL1       -0.2306
     23 N          -7.4298   -9.3352   -3.4706 N.ar    1  UNL1       -0.2159
     24 N          -8.6544   -9.7462   -1.4077 N.ar    1  UNL1       -0.2188
     25 N           5.9475   -2.0351    0.0432 N.am    1  UNL1       -0.3127
     26 N          -7.6151  -10.2772    0.6435 N.pl3   1  UNL1       -0.3413
     27 N           6.7704    1.6293    2.2629 N.am    1  UNL1       -0.3145
     28 C          -3.6926   -7.0815   -4.7450 C.3     1  UNL1        0.1283
     29 C          -4.9312   -7.9060   -5.0850 C.3     1  UNL1        0.1294
     30 C          -2.5931   -8.1200   -4.9394 C.3     1  UNL1        0.1142
     31 C          -4.5745   -9.2829   -4.4848 C.3     1  UNL1        0.1667
     32 C          -1.3459   -7.7947   -4.1320 C.3     1  UNL1        0.0879
     33 C          -6.3355   -9.5531   -2.7260 C.ar    1  UNL1        0.1674
     34 C          -4.2584   -9.8147   -2.0273 C.ar    1  UNL1        0.1004
     35 C           2.9516   -4.3406   -0.4987 C.3     1  UNL1        0.0235
     36 C          -6.2893   -9.8917   -1.3820 C.ar    1  UNL1        0.1473
     37 C           3.9454   -3.4146    0.2592 C.3     1  UNL1        0.1380
     38 C           1.8990   -3.4819   -1.2468 C.3     1  UNL1        0.0670
     39 C           3.6870   -5.2749   -1.4804 C.3     1  UNL1       -0.0549
     40 C           2.2390   -5.2345    0.5462 C.3     1  UNL1       -0.0549
     41 C          -7.5163   -9.9826   -0.7104 C.ar    1  UNL1        0.1472
     42 C           4.8134   -2.4688   -0.6089 C.2     1  UNL1        0.2423
     43 C          -8.5505   -9.4587   -2.7233 C.ar    1  UNL1        0.1205
     44 C           6.7678   -0.9341   -0.4102 C.3     1  UNL1        0.0199
     45 C           6.3438    0.3968    0.2124 C.3     1  UNL1        0.0395
     46 C           6.4983    0.3888    1.7235 C.2     1  UNL1        0.2145
     47 C           6.9082    1.8470    3.6977 C.3     1  UNL1        0.0204
     48 C           8.1166    1.1622    4.3528 C.3     1  UNL1        0.0063
     49 H          -3.7538   -6.7866   -3.6887 H       1  UNL1        0.0656
     50 H          -5.8401   -7.4637   -4.6633 H       1  UNL1        0.0666
     51 H          -2.3246   -8.2052   -5.9992 H       1  UNL1        0.0647
     52 H          -4.9733  -10.1121   -5.0791 H       1  UNL1        0.0866
     53 H          -0.7284   -8.6881   -3.9944 H       1  UNL1        0.0592
     54 H          -1.6240   -7.4559   -3.1244 H       1  UNL1        0.0592
     55 H          -5.0258   -8.8747   -6.8337 H       1  UNL1        0.2101
     56 H          -3.1762   -9.8707   -2.0681 H       1  UNL1        0.1030
     57 H           3.3571   -2.7289    0.8852 H       1  UNL1        0.0696
     58 H           1.4550   -2.7482   -0.5649 H       1  UNL1        0.0572
     59 H           2.3455   -2.9401   -2.0840 H       1  UNL1        0.0572
     60 H           4.6203   -5.6609   -1.0573 H       1  UNL1        0.0237
     61 H           3.0801   -6.1499   -1.7251 H       1  UNL1        0.0237
     62 H           3.9271   -4.7710   -2.4225 H       1  UNL1        0.0237
     63 H           2.9318   -5.9594    0.9899 H       1  UNL1        0.0237
     64 H           1.8241   -4.6281    1.3591 H       1  UNL1        0.0237
     65 H           1.4173   -5.8084    0.1062 H       1  UNL1        0.0237
     66 H          -3.3484   -3.0788   -5.0911 H       1  UNL1        0.2220
     67 H          -5.7614   -4.6279   -7.3548 H       1  UNL1        0.2220
     68 H          -9.4926   -9.3061   -3.2470 H       1  UNL1        0.1048
     69 H           4.5867   -3.8488    2.0558 H       1  UNL1        0.2105
     70 H           2.2064   -5.5689   -4.7585 H       1  UNL1        0.2220
     71 H           6.1079   -2.3842    0.9825 H       1  UNL1        0.1488
     72 H          -6.7554  -10.1165    1.1570 H       1  UNL1        0.1438
     73 H          -8.4793   -9.9479    1.0528 H       1  UNL1        0.1438
     74 H           6.7141   -0.8637   -1.5025 H       1  UNL1        0.0467
     75 H           7.8000   -1.1729   -0.1316 H       1  UNL1        0.0467
     76 H          -2.1882   -3.7454   -1.5663 H       1  UNL1        0.2220
     77 H           5.2941    0.6166   -0.0150 H       1  UNL1        0.0374
     78 H           6.9652    1.1953   -0.2097 H       1  UNL1        0.0374
     79 H           6.6775    2.4488    1.6753 H       1  UNL1        0.1487
     80 H           5.9877    1.4902    4.1752 H       1  UNL1        0.0470
     81 H           6.9585    2.9307    3.8551 H       1  UNL1        0.0470
     82 H           8.0582    0.0749    4.2444 H       1  UNL1        0.0389
     83 H           8.1177    1.3847    5.4250 H       1  UNL1        0.0389
     84 H           9.5166    1.2098    2.4457 H       1  UNL1        0.1017
@<TRIPOS>BOND
     1     1    48    1
     2     1    84    1
     3     2     6    1
     4     2    11    1
     5     2    12    1
     6     2    13    2
     7     3     8    1
     8     3    10    1
     9     3    15    1
    10     3    16    2
    11     4     9    1
    12     4    10    1
    13     4    17    1
    14     4    19    2
    15     5    30    1
    16     5    31    1
    17    28     6    1
    18    29     7    1
    19     7    55    1
    20     8    32    1
    21     9    38    1
    22    11    66    1
    23    12    67    1
    24    14    69    1
    25    15    70    1
    26    17    76    1
    27    18    42    2
    28    20    46    2
    29    31    21    1
    30    21    33   ar
    31    21    34   ar
    32    22    34   ar
    33    22    36   ar
    34    23    33   ar
    35    23    43   ar
    36    24    41   ar
    37    24    43   ar
    38    25    42   am
    39    25    44    1
    40    25    71    1
    41    26    41    1
    42    26    72    1
    43    26    73    1
    44    27    46   am
    45    27    47    1
    46    27    79    1
    47    28    29    1
    48    28    30    1
    49    28    49    1
    50    29    31    1
    51    29    50    1
    52    31    52    1
    53    32    53    1
    54    32    54    1
    55    33    36   ar
    56    34    56    1
    57    35    38    1
    58    35    39    1
    59    35    40    1
    60    36    41   ar
    61    37    42    1
    62    37    57    1
    63    38    58    1
    64    38    59    1
    65    39    60    1
    66    39    61    1
    67    39    62    1
    68    40    63    1
    69    40    64    1
    70    40    65    1
    71    43    68    1
    72    44    45    1
    73    44    74    1
    74    44    75    1
    75    45    46    1
    76    45    77    1
    77    45    78    1
    78    47    48    1
    79    47    80    1
    80    47    81    1
    81    48    82    1
    82    48    83    1
    83    30    51    1
    84    30    32    1
    85    37    35    1
    86    37    14    1
