@<TRIPOS>MOLECULE
coenzyme_m
 13 12 0 0 0
SMALL
GASTEIGER

@<TRIPOS>ATOM
      1 S          -1.0534    0.1021    0.0185 S.O2    1  UNL1        0.0805
      2 S           3.2874   -0.2487    0.0009 S.3     1  UNL1       -0.1766
      3 O          -1.8861   -1.2779   -0.2301 O.3     1  UNL1       -0.2539
      4 O          -1.2231    0.9647   -1.1359 O.2     1  UNL1       -0.1474
      5 O          -1.3213    0.5727    1.3650 O.2     1  UNL1       -0.1474
      6 C           0.5677   -0.5985   -0.0252 C.3     1  UNL1        0.1013
      7 C           1.6289    0.4856    0.0069 C.3     1  UNL1        0.0125
      8 H           0.6512   -1.2731    0.8335 H       1  UNL1        0.0533
      9 H           0.6399   -1.1826   -0.9494 H       1  UNL1        0.0533
     10 H           1.5267    1.1023    0.9057 H       1  UNL1        0.0390
     11 H           1.5393    1.1485   -0.8597 H       1  UNL1        0.0390
     12 H          -1.8315   -1.6483   -1.1425 H       1  UNL1        0.2445
     13 H           3.1858   -0.8527   -1.1923 H       1  UNL1        0.1017
@<TRIPOS>BOND
     1     1     3    1
     2     1     4    2
     3     1     5    2
     4     1     6    1
     5     2     7    1
     6     2    13    1
     7     3    12    1
     8     6     7    1
     9     6     8    1
    10     6     9    1
    11     7    10    1
    12     7    11    1
