@<TRIPOS>MOLECULE
cyanocobalamin
 182 192 0 0 0
SMALL
GASTEIGER

@<TRIPOS>ATOM
      1 CO          6.7880   36.2720   85.6850 Co.oh   1  UNL1        0.0000
      2 N           7.8820   34.8210   85.1620 N.2     1  UNL1        0.0000
      3 N           8.0250   37.4270   84.8100 N.2     1  UNL1        0.0000
      4 N           5.7120   37.6090   86.4850 N.2     1  UNL1        0.0000
      5 N           5.5860   34.9460   86.3320 N.pl3   1  UNL1       -1.0000
      6 C           7.6450   33.5960   85.9690 C.3     1  UNL1        0.0000
      7 C           8.1920   34.0480   87.3350 C.3     1  UNL1        0.0000
      8 C           8.4840   32.5030   85.0790 C.3     1  UNL1        0.0000
      9 C           9.0490   31.3540   85.9470 C.3     1  UNL1        0.0000
     10 C           7.6860   31.8420   83.8830 C.3     1  UNL1        0.0000
     11 C           8.3700   30.7990   83.0020 C.2     1  UNL1        0.0000
     12 O           9.0120   31.1590   82.0080 O.2     1  UNL1        0.0000
     13 N           8.2160   29.5050   83.2830 N.am    1  UNL1        0.0000
     14 C           9.5860   33.4270   84.4220 C.3     1  UNL1        0.0000
     15 C          10.9930   33.6590   85.0620 C.3     1  UNL1        0.0000
     16 C          12.1460   32.8030   84.5150 C.3     1  UNL1        0.0000
     17 C          13.4090   32.8830   85.3500 C.2     1  UNL1        0.0000
     18 O          13.5800   32.0850   86.2780 O.2     1  UNL1        0.0000
     19 N          14.3040   33.8190   85.0560 N.am    1  UNL1        0.0000
     20 C           8.8310   34.7500   84.2580 C.2     1  UNL1        0.0000
     21 C           9.1160   35.7980   83.3690 C.2     1  UNL1        0.0000
     22 C           9.7730   35.4390   82.0370 C.3     1  UNL1        0.0000
     23 C           8.8870   37.1560   83.7460 C.2     1  UNL1        0.0000
     24 C           9.4300   38.5000   83.1830 C.3     1  UNL1        0.0000
     25 C          10.8960   38.4480   82.6840 C.3     1  UNL1        0.0000
     26 C           8.5070   39.1160   82.0620 C.3     1  UNL1        0.0000
     27 C           8.2500   38.3370   80.7840 C.2     1  UNL1        0.0000
     28 O           7.3020   37.5450   80.7480 O.2     1  UNL1        0.0000
     29 N           9.0460   38.5170   79.7310 N.am    1  UNL1        0.0000
     30 C           9.2560   39.4320   84.4370 C.3     1  UNL1        0.0000
     31 C          10.3820   39.5790   85.5040 C.3     1  UNL1        0.0000
     32 C          10.4310   40.9420   86.2130 C.3     1  UNL1        0.0000
     33 C          11.5600   41.0690   87.2180 C.2     1  UNL1        0.0000
     34 O          11.4250   40.5850   88.3480 O.2     1  UNL1        0.0000
     35 N          12.6700   41.7030   86.8570 N.am    1  UNL1        0.0000
     36 C           8.0650   38.7510   85.0910 C.2     1  UNL1        0.0000
     37 C           7.1670   39.4270   85.8880 C.2     1  UNL1        0.0000
     38 C           6.0630   38.9260   86.5620 C.2     1  UNL1        0.0000
     39 C           5.0770   39.7560   87.3880 C.3     1  UNL1        0.0000
     40 C           4.0770   40.4630   86.4470 C.3     1  UNL1        0.0000
     41 C           5.7820   40.8400   88.2430 C.3     1  UNL1        0.0000
     42 C           4.4110   38.5980   88.1890 C.3     1  UNL1        0.0000
     43 C           4.9100   38.1210   89.5830 C.3     1  UNL1        0.0000
     44 C           4.2290   38.7640   90.8010 C.3     1  UNL1        0.0000
     45 C           4.5600   38.1030   92.1260 C.2     1  UNL1        0.0000
     46 O           3.7170   37.3860   92.6780 O.2     1  UNL1        0.0000
     47 N           5.7520   38.3280   92.6660 N.am    1  UNL1        0.0000
     48 C           4.5680   37.4270   87.2090 C.2     1  UNL1        0.0000
     49 C           3.7920   36.2580   87.1220 C.2     1  UNL1        0.0000
     50 C           2.2990   36.3780   87.4300 C.3     1  UNL1        0.0000
     51 C           4.3810   34.9730   86.8700 C.2     1  UNL1        0.0000
     52 C           3.9260   33.5210   87.1930 C.3     1  UNL1        0.0000
     53 C           2.8230   33.1010   86.1750 C.3     1  UNL1        0.0000
     54 C           3.3630   33.3180   88.6370 C.3     1  UNL1        0.0000
     55 C           4.0880   33.9720   89.8290 C.3     1  UNL1        0.0000
     56 C           3.4020   33.6990   91.1510 C.2     1  UNL1        0.0000
     57 O           2.3250   34.2660   91.4000 O.2     1  UNL1        0.0000
     58 N           3.9930   32.8640   92.0280 N.am    1  UNL1        0.0000
     59 C           5.2710   32.7110   86.9860 C.3     1  UNL1        0.0000
     60 C           5.2110   31.2060   86.6080 C.3     1  UNL1        0.0000
     61 C           4.6440   30.2480   87.6480 C.2     1  UNL1        0.0000
     62 O           5.2970   29.9830   88.6640 O.2     1  UNL1        0.0000
     63 N           3.4460   29.7070   87.4250 N.am    1  UNL1        0.0000
     64 C           6.0970   33.5890   86.0030 C.3     1  UNL1        0.0000
     65 C           3.4380   32.4510   93.3130 C.3     1  UNL1        0.0000
     66 C           3.6980   33.4350   94.4480 C.3     1  UNL1        0.0000
     67 C           2.9780   33.1190   95.7410 C.3     1  UNL1        0.0000
     68 O           5.1290   33.4400   94.7090 O.3     1  UNL1        0.0000
     69 O           5.7310   35.1950   93.0040 O.2     1  UNL1        0.0000
     70 O           7.4610   34.2820   94.6390 O.co2   1  UNL1       -1.0000
     71 P           6.0500   34.6880   94.3690 P.3     1  UNL1        0.0000
     72 O           5.5030   35.7460   95.4550 O.3     1  UNL1        0.0000
     73 C           6.0200   35.8250   96.7840 C.3     1  UNL1        0.0000
     74 C           6.9580   37.0310   96.9790 C.3     1  UNL1        0.0000
     75 O           7.6470   37.3480   95.7840 O.3     1  UNL1        0.0000
     76 C           6.0150   38.1320   97.4550 C.3     1  UNL1        0.0000
     77 O           4.9300   37.4690   98.1090 O.3     1  UNL1        0.0000
     78 C           4.8700   36.0650   97.7730 C.3     1  UNL1        0.0000
     79 C           4.8770   35.2540   99.0550 C.3     1  UNL1        0.0000
     80 O           5.9410   35.5990   99.9280 O.3     1  UNL1        0.0000
     81 N           5.4920   39.0230   96.4210 N.ar    1  UNL1        0.0000
     82 C           6.1310   40.1490   95.9290 C.ar    1  UNL1        0.0000
     83 C           4.3080   38.9420   95.7610 C.ar    1  UNL1        0.0000
     84 N           4.1290   39.9060   94.8900 N.ar    1  UNL1        0.0000
     85 C           5.2730   40.6960   94.9690 C.ar    1  UNL1        0.0000
     86 C           5.6340   41.8510   94.2780 C.ar    1  UNL1        0.0000
     87 C           6.8450   42.4620   94.5460 C.ar    1  UNL1        0.0000
     88 C           7.2080   43.7160   93.7720 C.3     1  UNL1        0.0000
     89 C           7.7240   41.9000   95.5220 C.ar    1  UNL1        0.0000
     90 C           9.0610   42.5330   95.8430 C.3     1  UNL1        0.0000
     91 C           7.3560   40.7480   96.2070 C.ar    1  UNL1        0.0000
     92 N           5.1130   36.3100   83.0380 N.1     1  UNL1        0.0000
     93 C           5.7810   36.2950   84.0940 C.2     1  UNL1       -1.0000
     94 H           8.0470   33.3490   88.0000 H       1  UNL1        0.0000
     95 H           7.7530   34.8690   87.6300 H       1  UNL1        0.0000
     96 H           9.1420   34.2220   87.2740 H       1  UNL1        0.0000
     97 H           9.6910   30.8330   85.4320 H       1  UNL1        0.0000
     98 H           8.3270   30.7700   86.2370 H       1  UNL1        0.0000
     99 H           9.4990   31.7100   86.7320 H       1  UNL1        0.0000
    100 H           7.3610   32.5640   83.2890 H       1  UNL1        0.0000
    101 H           6.8790   31.4090   84.2540 H       1  UNL1        0.0000
    102 H           8.6060   28.8920   82.7730 H       1  UNL1        0.0000
    103 H           7.7270   29.2460   83.9790 H       1  UNL1        0.0000
    104 H           9.7390   33.0960   83.5120 H       1  UNL1        0.0000
    105 H          10.9360   33.5080   86.0300 H       1  UNL1        0.0000
    106 H          11.2400   34.6040   84.9360 H       1  UNL1        0.0000
    107 H          12.3470   33.0910   83.6130 H       1  UNL1        0.0000
    108 H          11.8600   31.8780   84.4740 H       1  UNL1        0.0000
    109 H          15.0480   33.8740   85.5370 H       1  UNL1        0.0000
    110 H          14.1800   34.3950   84.3890 H       1  UNL1        0.0000
    111 H           9.4030   34.6070   81.7040 H       1  UNL1        0.0000
    112 H          10.7290   35.3380   82.1660 H       1  UNL1        0.0000
    113 H           9.6090   36.1340   81.3850 H       1  UNL1        0.0000
    114 H          10.9330   38.0750   81.7850 H       1  UNL1        0.0000
    115 H          11.4260   37.8860   83.2810 H       1  UNL1        0.0000
    116 H          11.2750   39.3500   82.6640 H       1  UNL1        0.0000
    117 H           8.8800   39.9760   81.8040 H       1  UNL1        0.0000
    118 H           7.6370   39.3010   82.4500 H       1  UNL1        0.0000
    119 H           8.8980   38.0660   78.9810 H       1  UNL1        0.0000
    120 H           9.7300   39.0850   79.7720 H       1  UNL1        0.0000
    121 H           8.9730   40.3400   84.1500 H       1  UNL1        0.0000
    122 H          11.2550   39.4330   85.0860 H       1  UNL1        0.0000
    123 H          10.2670   38.8790   86.1880 H       1  UNL1        0.0000
    124 H           9.5910   41.0840   86.6720 H       1  UNL1        0.0000
    125 H          10.5250   41.6390   85.5460 H       1  UNL1        0.0000
    126 H          13.3310   41.7850   87.4440 H       1  UNL1        0.0000
    127 H          12.7750   42.0460   86.0430 H       1  UNL1        0.0000
    128 H           7.3130   40.3570   85.9500 H       1  UNL1        0.0000
    129 H           3.3840   40.9120   86.9730 H       1  UNL1        0.0000
    130 H           3.6570   39.8070   85.8570 H       1  UNL1        0.0000
    131 H           4.5470   41.1250   85.9000 H       1  UNL1        0.0000
    132 H           6.1130   41.5590   87.6670 H       1  UNL1        0.0000
    133 H           6.5370   40.4430   88.7160 H       1  UNL1        0.0000
    134 H           5.1520   41.2100   88.8930 H       1  UNL1        0.0000
    135 H           3.4430   38.7990   88.2770 H       1  UNL1        0.0000
    136 H           5.8790   38.2840   89.6480 H       1  UNL1        0.0000
    137 H           4.7800   37.1500   89.6490 H       1  UNL1        0.0000
    138 H           3.2680   38.7330   90.6750 H       1  UNL1        0.0000
    139 H           4.4890   39.6940   90.8470 H       1  UNL1        0.0000
    140 H           5.9570   37.9470   93.4410 H       1  UNL1        0.0000
    141 H           6.3530   38.8520   92.2710 H       1  UNL1        0.0000
    142 H           1.9980   37.2870   87.2760 H       1  UNL1        0.0000
    143 H           2.1400   36.1390   88.3570 H       1  UNL1        0.0000
    144 H           1.7960   35.7850   86.8540 H       1  UNL1        0.0000
    145 H           2.0400   33.6620   86.2820 H       1  UNL1        0.0000
    146 H           2.5610   32.1740   86.3260 H       1  UNL1        0.0000
    147 H           3.1590   33.1970   85.2630 H       1  UNL1        0.0000
    148 H           3.3160   32.3590   88.8180 H       1  UNL1        0.0000
    149 H           2.4410   33.6450   88.6540 H       1  UNL1        0.0000
    150 H           4.1230   34.9280   89.6930 H       1  UNL1        0.0000
    151 H           5.0000   33.6520   89.8680 H       1  UNL1        0.0000
    152 H           4.7780   32.5400   91.8100 H       1  UNL1        0.0000
    153 H           5.7730   32.7510   87.8420 H       1  UNL1        0.0000
    154 H           6.1130   30.9100   86.4150 H       1  UNL1        0.0000
    155 H           4.7090   31.1050   85.7790 H       1  UNL1        0.0000
    156 H           3.0930   29.1540   88.0220 H       1  UNL1        0.0000
    157 H           2.9960   29.8850   86.6800 H       1  UNL1        0.0000
    158 H           3.8270   31.5780   93.5550 H       1  UNL1        0.0000
    159 H           2.4640   32.3280   93.2090 H       1  UNL1        0.0000
    160 H           3.4090   34.3300   94.1250 H       1  UNL1        0.0000
    161 H           3.1960   33.7930   96.4060 H       1  UNL1        0.0000
    162 H           3.2570   32.2450   96.0650 H       1  UNL1        0.0000
    163 H           2.0180   33.1160   95.5880 H       1  UNL1        0.0000
    164 H           7.9691   35.0640   94.9057 H       1 UNL1 0.0000
    165 H           6.5120   35.0000   97.0110 H       1  UNL1        0.0000
    166 H           7.6030   36.8130   97.7000 H       1  UNL1        0.0000
    167 H           8.2620   37.9010   95.9360 H       1  UNL1        0.0000
    168 H           6.4880   38.6800   98.1360 H       1  UNL1        0.0000
    169 H           4.0130   35.8930   97.3080 H       1  UNL1        0.0000
    170 H           4.9360   34.3010   98.8370 H       1  UNL1        0.0000
    171 H           4.0260   35.3930   99.5190 H       1  UNL1        0.0000
    172 H           5.8950   35.1180  100.6220 H       1  UNL1        0.0000
    173 H           3.6860   38.2570   95.9190 H       1  UNL1        0.0000
    174 H           5.0500   42.2170   93.6320 H       1  UNL1        0.0000
    175 H           7.3930   44.4450   94.3880 H       1  UNL1        0.0000
    176 H           6.4720   43.9780   93.1920 H       1  UNL1        0.0000
    177 H           7.9930   43.5480   93.2240 H       1  UNL1        0.0000
    178 H           9.4960   42.0500   96.5660 H       1  UNL1        0.0000
    179 H           8.9320   43.4550   96.1230 H       1  UNL1        0.0000
    180 H           9.6350   42.5070   95.0580 H       1  UNL1        0.0000
    181 H           7.9440   40.3750   96.8600 H       1  UNL1        0.0000
    182 H           5.7890   33.3670   85.0930 H       1  UNL1        0.0000
@<TRIPOS>UNITY_ATOM_ATTR
5 1
charge -1
70 1
charge -1
93 1
charge -1
@<TRIPOS>BOND
     1     1     2    1
     2     1     3    1
     3     1     4    1
     4     1     5    1
     5     1    93    1
     6     2     6    1
     7     2    20    2
     8     3    23    1
     9     3    36    2
    10     4    38    1
    11     4    48    2
    12     5    51    1
    13     5    64    1
    14     6     7    1
    15     6     8    1
    16     6    64    1
    17     7    94    1
    18     7    95    1
    19     7    96    1
    20     8     9    1
    21     8    10    1
    22     8    14    1
    23     9    97    1
    24     9    98    1
    25     9    99    1
    26    10    11    1
    27    10   100    1
    28    10   101    1
    29    11    12    2
    30    11    13   am
    31    13   102    1
    32    13   103    1
    33    14    15    1
    34    14    20    1
    35    14   104    1
    36    15    16    1
    37    15   105    1
    38    15   106    1
    39    16    17    1
    40    16   107    1
    41    16   108    1
    42    17    18    2
    43    17    19   am
    44    19   109    1
    45    19   110    1
    46    20    21    1
    47    21    22    1
    48    21    23    2
    49    22   111    1
    50    22   112    1
    51    22   113    1
    52    23    24    1
    53    24    25    1
    54    24    26    1
    55    24    30    1
    56    25   114    1
    57    25   115    1
    58    25   116    1
    59    26    27    1
    60    26   117    1
    61    26   118    1
    62    27    28    2
    63    27    29   am
    64    29   119    1
    65    29   120    1
    66    30    31    1
    67    30    36    1
    68    30   121    1
    69    31    32    1
    70    31   122    1
    71    31   123    1
    72    32    33    1
    73    32   124    1
    74    32   125    1
    75    33    34    2
    76    33    35   am
    77    35   126    1
    78    35   127    1
    79    36    37    1
    80    37    38    2
    81    37   128    1
    82    38    39    1
    83    39    40    1
    84    39    41    1
    85    39    42    1
    86    40   129    1
    87    40   130    1
    88    40   131    1
    89    41   132    1
    90    41   133    1
    91    41   134    1
    92    42    43    1
    93    42    48    1
    94    42   135    1
    95    43    44    1
    96    43   136    1
    97    43   137    1
    98    44    45    1
    99    44   138    1
   100    44   139    1
   101    45    46    2
   102    45    47   am
   103    47   140    1
   104    47   141    1
   105    48    49    1
   106    49    50    1
   107    49    51    2
   108    50   142    1
   109    50   143    1
   110    50   144    1
   111    51    52    1
   112    52    53    1
   113    52    54    1
   114    52    59    1
   115    53   145    1
   116    53   146    1
   117    53   147    1
   118    54    55    1
   119    54   148    1
   120    54   149    1
   121    55    56    1
   122    55   150    1
   123    55   151    1
   124    56    57    2
   125    56    58   am
   126    58    65    1
   127    58   152    1
   128    59    60    1
   129    59    64    1
   130    59   153    1
   131    60    61    1
   132    60   154    1
   133    60   155    1
   134    61    62    2
   135    61    63   am
   136    63   156    1
   137    63   157    1
   138    64   182    1
   139    65    66    1
   140    65   158    1
   141    65   159    1
   142    66    67    1
   143    66    68    1
   144    66   160    1
   145    67   161    1
   146    67   162    1
   147    67   163    1
   148    68    71    1
   149    69    71    2
   150    70    71    1
   151    70   164    1
   152    71    72    1
   153    72    73    1
   154    73    74    1
   155    73    78    1
   156    73   165    1
   157    74    75    1
   158    74    76    1
   159    74   166    1
   160    75   167    1
   161    76    77    1
   162    76    81    1
   163    76   168    1
   164    77    78    1
   165    78    79    1
   166    78   169    1
   167    79    80    1
   168    79   170    1
   169    79   171    1
   170    80   172    1
   171    81    82   ar
   172    81    83   ar
   173    82    85   ar
   174    82    91   ar
   175    83    84   ar
   176    83   173    1
   177    84    85   ar
   178    85    86   ar
   179    86    87   ar
   180    86   174    1
   181    87    88    1
   182    87    89   ar
   183    88   175    1
   184    88   176    1
   185    88   177    1
   186    89    90    1
   187    89    91   ar
   188    90   178    1
   189    90   179    1
   190    90   180    1
   191    91   181    1
   192    92    93    3
