@<TRIPOS>MOLECULE
dihydrofolate
 53 55 0 0 0
SMALL
GASTEIGER

@<TRIPOS>ATOM
      1 O           7.7766   -2.1164    1.4791 O.3     1  UNL1       -0.4793
      2 O           4.2645   -1.4834   -2.0810 O.2     1  UNL1       -0.2702
      3 OXT         5.7472   -1.7771    2.4366 O.2     1  UNL1       -0.2489
      4 OE1         7.4313    3.5616    1.0249 O.3     1  UNL1       -0.4806
      5 O          -6.5383   -2.3600   -0.4995 O.2     1  UNL1       -0.2654
      6 OE2         8.2143    2.5833   -0.8663 O.2     1  UNL1       -0.2510
      7 N           4.6598   -0.9168    0.1325 N.am    1  UNL1       -0.2983
      8 N          -5.4856    2.1540    0.3097 N.pl3   1  UNL1       -0.3218
      9 N          -1.6497    0.0270   -0.2985 N.pl3   1  UNL1       -0.3385
     10 N          -4.7140   -0.3152   -0.6763 N.2     1  UNL1       -0.2446
     11 N          -7.6302    1.2697    0.9351 N.ar    1  UNL1       -0.1991
     12 N          -8.0909   -0.9890    0.5036 N.ar    1  UNL1       -0.2935
     13 N          -9.7037    0.3510    1.5223 N.pl3   1  UNL1       -0.3289
     14 CA          6.0876   -1.1405    0.1105 C.3     1  UNL1        0.1209
     15 CB          6.8758    0.1056   -0.3107 C.3     1  UNL1       -0.0140
     16 C          -3.8789    0.6764   -0.7427 C.2     1  UNL1        0.0537
     17 C          -4.1621    2.0761   -0.2471 C.3     1  UNL1        0.0505
     18 C          -2.5247    0.4306   -1.3571 C.3     1  UNL1        0.0491
     19 CG          6.7470    1.3224    0.6142 C.3     1  UNL1        0.0470
     20 C          -6.3751    1.0960    0.3803 C.ar    1  UNL1        0.1535
     21 C          -5.9483   -0.0888   -0.1160 C.ar    1  UNL1        0.1677
     22 C          -0.2960   -0.2524   -0.4672 C.ar    1  UNL1        0.0274
     23 C           2.4159   -0.8137   -0.8034 C.ar    1  UNL1        0.0368
     24 C           3.8298   -1.1051   -0.9787 C.2     0  ACE0        0.2447
     25 C           6.4870   -1.6880    1.4654 C.2     1  UNL1        0.3253
     26 C           0.2870   -0.1456   -1.7299 C.ar    1  UNL1       -0.0401
     27 C           0.4770   -0.6400    0.6274 C.ar    1  UNL1       -0.0401
     28 C           1.6429   -0.4263   -1.8979 C.ar    1  UNL1       -0.0479
     29 C           1.8328   -0.9207    0.4592 C.ar    1  UNL1       -0.0479
     30 C          -6.8667   -1.2598   -0.0652 C.ar    1  UNL1        0.2800
     31 CD          7.5333    2.5286    0.1483 C.2     1  UNL1        0.3048
     32 C          -8.4458    0.2566    0.9879 C.ar    1  UNL1        0.1948
     33 HA          6.2783   -1.9383   -0.6185 H       1  UNL1        0.0614
     34 HB1         7.9391   -0.1552   -0.3930 H       1  UNL1        0.0294
     35 HB2         6.5595    0.4005   -1.3201 H       1  UNL1        0.0294
     36 H          -3.4197    2.3410    0.5121 H       1  UNL1        0.0524
     37 H          -4.0686    2.7734   -1.0855 H       1  UNL1        0.0524
     38 H          -2.1841    1.3544   -1.8370 H       1  UNL1        0.0523
     39 H          -2.6183   -0.3541   -2.1164 H       1  UNL1        0.0523
     40 HG1         7.1060    1.0605    1.6157 H       1  UNL1        0.0378
     41 HG2         5.6957    1.6225    0.6846 H       1  UNL1        0.0378
     42 H           4.2746   -0.5300    0.9880 H       1  UNL1        0.1498
     43 H          -5.8109    3.0394    0.6831 H       1  UNL1        0.1479
     44 H          -2.0252   -0.0757    0.6388 H       1  UNL1        0.1464
     45 H          -0.2802    0.1524   -2.6068 H       1  UNL1        0.0636
     46 H           0.0335   -0.7338    1.6155 H       1  UNL1        0.0636
     47 H           2.0793   -0.3329   -2.8890 H       1  UNL1        0.0626
     48 H           2.3901   -1.2489    1.3317 H       1  UNL1        0.0626
     49 H          -8.7669   -1.7440    0.5703 H       1  UNL1        0.1716
     50 H           8.0296   -2.4853    2.3521 H       1  UNL1        0.2951
     51 H         -10.0489    1.2261    1.9013 H       1  UNL1        0.1451
     52 H         -10.3260   -0.4491    1.5552 H       1  UNL1        0.1451
     53 HE1         7.9545    4.3394    0.7356 H       1  UNL1        0.2951
@<TRIPOS>BOND
     1     1    25    1
     2     1    50    1
     3     2    24    2
     4     3    25    2
     5     4    31    1
     6     4    53    1
     7     5    30    2
     8     6    31    2
     9     7    14    1
    10     7    24   am
    11     7    42    1
    12     8    17    1
    13     8    20    1
    14     8    43    1
    15     9    18    1
    16     9    22    1
    17     9    44    1
    18    10    16    2
    19    10    21    1
    20    11    20   ar
    21    11    32   ar
    22    12    30   ar
    23    12    32   ar
    24    12    49    1
    25    13    32    1
    26    13    51    1
    27    13    52    1
    28    14    15    1
    29    14    25    1
    30    14    33    1
    31    15    19    1
    32    15    34    1
    33    15    35    1
    34    16    17    1
    35    16    18    1
    36    17    36    1
    37    17    37    1
    38    18    38    1
    39    18    39    1
    40    19    31    1
    41    19    40    1
    42    19    41    1
    43    20    21   ar
    44    21    30   ar
    45    22    26   ar
    46    22    27   ar
    47    23    24    1
    48    23    28   ar
    49    23    29   ar
    50    26    28   ar
    51    26    45    1
    52    27    29   ar
    53    27    46    1
    54    28    47    1
    55    29    48    1
