@<TRIPOS>MOLECULE
fad
 86 91 0 0 0
SMALL
GASTEIGER

@<TRIPOS>ATOM
      1 P          -0.4986    5.1134    3.5576 P.3     1  UNL1        0.4835
      2 P          -0.7029    3.8969    1.0160 P.3     1  UNL1        0.4835
      3 O          -3.7844    5.8388    5.6229 O.3     1  UNL1       -0.3456
      4 O          -4.9307    8.7893    7.0259 O.3     1  UNL1       -0.3847
      5 O          -3.6358    8.7840    4.8719 O.3     1  UNL1       -0.3864
      6 O          -0.7905    4.7936    5.1470 O.3     1  UNL1       -0.2837
      7 O          -0.0782    3.7218    2.6197 O.3     1  UNL1       -0.1861
      8 O           5.8600    7.4335   -1.7694 O.3     1  UNL1       -0.3874
      9 O           3.5537    7.1996   -0.0489 O.3     1  UNL1       -0.3865
     10 O           1.0129    3.7050    0.5653 O.3     1  UNL1       -0.2837
     11 O           1.1638    5.3268    3.9862 O.3     1  UNL1       -0.3022
     12 O           4.0158    3.6188   -0.6590 O.3     1  UNL1       -0.3868
     13 O          -1.9865    4.9224    3.1739 O.2     1  UNL1       -0.2269
     14 O          -1.0227    2.2871    1.1234 O.3     1  UNL1       -0.3022
     15 O          -1.2619    4.0537   -0.4194 O.2     1  UNL1       -0.2269
     16 O          10.7042   11.2874   -0.1239 O.2     1  UNL1       -0.2653
     17 O           6.5351   11.4991    1.5362 O.2     1  UNL1       -0.2446
     18 N          -4.3639    5.3973    7.8562 N.ar    1  UNL1       -0.2855
     19 N          -3.1344    3.8632    8.9244 N.ar    1  UNL1       -0.2306
     20 N          -6.0371    5.8192    9.6450 N.ar    1  UNL1       -0.2159
     21 N           7.8779    7.2664    0.1654 N.ar    1  UNL1       -0.3195
     22 N          -5.3434    4.7099   11.7286 N.ar    1  UNL1       -0.2188
     23 N          -3.2460    3.6158   11.9148 N.pl3   1  UNL1       -0.3413
     24 N          10.3425    8.5550   -0.6527 N.ar    1  UNL1       -0.2368
     25 N           7.2118    9.4299    0.9081 N.ar    1  UNL1       -0.1733
     26 N           8.6123   11.3410    0.7640 N.ar    1  UNL1       -0.2717
     27 C          -3.9224    7.7609    7.0448 C.3     1  UNL1        0.1285
     28 C          -2.9455    8.0086    5.8876 C.3     1  UNL1        0.1135
     29 C          -4.5160    6.3651    6.7842 C.3     1  UNL1        0.1667
     30 C          -2.6050    6.6239    5.3554 C.3     1  UNL1        0.1134
     31 C          -1.2505    5.9992    5.8590 C.3     1  UNL1        0.0879
     32 C          -4.9317    5.2860    9.1168 C.ar    1  UNL1        0.1674
     33 C          -3.5065    4.3233    7.7517 C.ar    1  UNL1        0.1004
     34 C          -4.0489    4.4380    9.7790 C.ar    1  UNL1        0.1473
     35 C           5.6970    6.3010   -0.8645 C.3     1  UNL1        0.1014
     36 C           4.1229    6.0437   -0.6693 C.3     1  UNL1        0.1106
     37 C           6.5149    6.6622    0.4150 C.3     1  UNL1        0.0538
     38 C           3.5136    4.7525    0.0508 C.3     1  UNL1        0.1073
     39 C          -4.2115    4.2613   11.1623 C.ar    1  UNL1        0.1472
     40 C           8.9236    6.5202   -0.4241 C.ar    1  UNL1        0.0694
     41 C           1.8410    4.8252    0.0992 C.3     1  UNL1        0.0875
     42 C           8.0857    8.6446    0.3539 C.ar    1  UNL1        0.1705
     43 C          -6.1953    5.4075   10.9418 C.ar    1  UNL1        0.1205
     44 C          10.1026    7.1784   -0.8571 C.ar    1  UNL1        0.0886
     45 C           8.8735    5.1328   -0.6241 C.ar    1  UNL1       -0.0329
     46 C           9.4058    9.2469   -0.0613 C.ar    1  UNL1        0.1712
     47 C           9.8776    4.4313   -1.3313 C.ar    1  UNL1       -0.0455
     48 C          11.1091    6.4845   -1.5392 C.ar    1  UNL1       -0.0311
     49 C          10.9945    5.1221   -1.8282 C.ar    1  UNL1       -0.0454
     50 C           9.6651   10.7209    0.1809 C.ar    1  UNL1        0.2817
     51 C           9.6860    2.9617   -1.5913 C.3     1  UNL1       -0.0394
     52 C          12.0837    4.4776   -2.6416 C.3     1  UNL1       -0.0394
     53 C           7.4147   10.7772    1.0791 C.ar    1  UNL1        0.3505
     54 H          -3.4066    7.8187    8.0054 H       1  UNL1        0.0665
     55 H          -2.0724    8.6011    6.1734 H       1  UNL1        0.0647
     56 H          -5.5795    6.3994    6.5229 H       1  UNL1        0.0866
     57 H          -2.5484    6.7126    4.2725 H       1  UNL1        0.0647
     58 H          -1.2912    5.7560    6.9222 H       1  UNL1        0.0592
     59 H          -0.4594    6.7494    5.7260 H       1  UNL1        0.0592
     60 H          -4.8909    9.1950    6.1408 H       1  UNL1        0.2101
     61 H          -3.8395    8.2225    4.0993 H       1  UNL1        0.2100
     62 H          -3.1314    3.9715    6.7919 H       1  UNL1        0.1030
     63 H           6.1557    5.4491   -1.3781 H       1  UNL1        0.0638
     64 H           3.7445    6.0104   -1.7021 H       1  UNL1        0.0646
     65 H           5.9261    7.3864    0.9885 H       1  UNL1        0.0519
     66 H           6.6131    5.7859    1.0638 H       1  UNL1        0.0519
     67 H           3.9028    4.7027    1.0754 H       1  UNL1        0.0643
     68 H           1.5218    5.0234   -0.9267 H       1  UNL1        0.0592
     69 H           1.5952    5.6776    0.7366 H       1  UNL1        0.0592
     70 H          -7.1414    5.6547   11.4199 H       1  UNL1        0.1048
     71 H           8.0390    4.5616   -0.2334 H       1  UNL1        0.0641
     72 H           5.2690    7.3206   -2.5300 H       1  UNL1        0.2100
     73 H           2.7447    7.4217   -0.5407 H       1  UNL1        0.2100
     74 H          11.9858    7.0386   -1.8745 H       1  UNL1        0.0642
     75 H          -3.5606    3.2758   12.8063 H       1  UNL1        0.1438
     76 H          -2.6375    3.0313   11.3542 H       1  UNL1        0.1438
     77 H           1.5299    4.4356    4.1665 H       1  UNL1        0.2220
     78 H           3.8718    2.8260   -0.1109 H       1  UNL1        0.2100
     79 H           9.5924    2.7870   -2.6683 H       1  UNL1        0.0278
     80 H          10.5286    2.3878   -1.1954 H       1  UNL1        0.0278
     81 H           8.7736    2.5871   -1.1188 H       1  UNL1        0.0278
     82 H          12.3250    5.1033   -3.5083 H       1  UNL1        0.0278
     83 H          12.9869    4.3479   -2.0368 H       1  UNL1        0.0278
     84 H          11.7909    3.5014   -3.0365 H       1  UNL1        0.0278
     85 H           8.6853   12.3366    0.9280 H       1  UNL1        0.1735
     86 H          -1.8053    2.1385    1.6808 H       1  UNL1        0.2220
@<TRIPOS>BOND
     1     1     6    1
     2     1     7    1
     3     1    11    1
     4     1    13    2
     5     2     7    1
     6     2    10    1
     7     2    14    1
     8     2    15    2
     9     3    29    1
    10     3    30    1
    11    27     4    1
    12     4    60    1
    13    28     5    1
    14     5    61    1
    15     6    31    1
    16    35     8    1
    17     8    72    1
    18    36     9    1
    19     9    73    1
    20    10    41    1
    21    11    77    1
    22    38    12    1
    23    12    78    1
    24    14    86    1
    25    16    50    2
    26    17    53    2
    27    18    32   ar
    28    18    33   ar
    29    19    33   ar
    30    19    34   ar
    31    20    32   ar
    32    20    43   ar
    33    21    37    1
    34    21    40   ar
    35    21    42   ar
    36    22    39   ar
    37    22    43   ar
    38    23    39    1
    39    23    75    1
    40    23    76    1
    41    24    44   ar
    42    24    46   ar
    43    25    42   ar
    44    25    53   ar
    45    26    50   ar
    46    26    53   ar
    47    26    85    1
    48    27    28    1
    49    27    29    1
    50    27    54    1
    51    28    30    1
    52    28    55    1
    53    30    31    1
    54    30    57    1
    55    31    58    1
    56    31    59    1
    57    32    34   ar
    58    33    62    1
    59    34    39   ar
    60    35    36    1
    61    35    37    1
    62    35    63    1
    63    36    38    1
    64    36    64    1
    65    37    65    1
    66    37    66    1
    67    38    41    1
    68    38    67    1
    69    40    44   ar
    70    40    45   ar
    71    41    68    1
    72    41    69    1
    73    42    46    1
    74    43    70    1
    75    44    48   ar
    76    45    47   ar
    77    45    71    1
    78    46    50   ar
    79    47    49   ar
    80    47    51    1
    81    48    49   ar
    82    48    74    1
    83    49    52    1
    84    51    79    1
    85    51    80    1
    86    51    81    1
    87    52    82    1
    88    52    83    1
    89    52    84    1
    90    29    56    1
    91    29    18    1
