@<TRIPOS>MOLECULE
fadh2
 88 93 0 0 0
SMALL
GASTEIGER

@<TRIPOS>ATOM
      1 P           5.0864    0.5968   -1.0718 P.3     1  UNL1        0.4835
      2 P           4.7571   -2.0165   -0.2247 P.3     1  UNL1        0.4835
      3 O           9.3114    1.7975   -1.6001 O.3     1  UNL1       -0.3456
      4 O          10.9041    2.7926   -4.6966 O.3     1  UNL1       -0.3847
      5 O           9.3341    4.4621   -3.5112 O.3     1  UNL1       -0.3864
      6 O           6.5385    1.4049   -0.9587 O.3     1  UNL1       -0.2837
      7 O           0.5296   -4.7646   -1.1016 O.3     1  UNL1       -0.3876
      8 O           5.0956   -0.4905    0.1239 O.3     1  UNL1       -0.1861
      9 O           3.5229   -6.8065   -1.4960 O.3     1  UNL1       -0.3865
     10 O           3.2848   -2.2949    0.3212 O.3     1  UNL1       -0.2837
     11 O           3.5305   -5.1099    0.6902 O.3     1  UNL1       -0.3868
     12 O           6.0732   -0.5874   -1.8572 O.3     1  UNL1       -0.3022
     13 O           4.2032    1.6567   -0.3690 O.2     1  UNL1       -0.2269
     14 O           4.4511   -2.1065   -1.8098 O.3     1  UNL1       -0.3022
     15 O          -5.2519   -6.4239   -3.0430 O.2     1  UNL1       -0.2656
     16 O           5.7934   -3.0000    0.2163 O.2     1  UNL1       -0.2269
     17 O          -2.1941   -3.0916   -3.1874 O.2     1  UNL1       -0.2466
     18 N          11.2735    0.7041   -2.2225 N.ar    1  UNL1       -0.2855
     19 N          -0.8173   -7.2601   -1.4934 N.pl3   1  UNL1       -0.2808
     20 N          12.6700   -0.4437   -0.9195 N.ar    1  UNL1       -0.2306
     21 N           9.9815   -1.1505   -3.1824 N.ar    1  UNL1       -0.2159
     22 N          -3.3898   -8.2430   -2.0341 N.pl3   1  UNL1       -0.3062
     23 N          -1.5753   -5.1345   -2.4335 N.ar    1  UNL1       -0.2940
     24 N          10.6311   -3.2677   -2.1531 N.ar    1  UNL1       -0.2188
     25 N          -3.7270   -4.7501   -3.1527 N.ar    1  UNL1       -0.2735
     26 N          12.1747   -3.4104   -0.3629 N.pl3   1  UNL1       -0.3413
     27 C           9.9388    2.1607   -3.8547 C.3     1  UNL1        0.1285
     28 C           8.7933    3.1249   -3.5211 C.3     1  UNL1        0.1135
     29 C          10.4683    1.8760   -2.4585 C.3     1  UNL1        0.1667
     30 C           8.3011    2.6758   -2.1322 C.3     1  UNL1        0.1134
     31 C           6.9673    1.9426   -2.2243 C.3     1  UNL1        0.0879
     32 C          10.9449   -0.6141   -2.4086 C.ar    1  UNL1        0.1674
     33 C          12.3819    0.7390   -1.4082 C.ar    1  UNL1        0.1004
     34 C          11.7827   -1.2962   -1.5343 C.ar    1  UNL1        0.1473
     35 C           1.2754   -5.9869   -1.0256 C.3     1  UNL1        0.0995
     36 C           0.6101   -7.0776   -1.8770 C.3     1  UNL1        0.0472
     37 C           2.6814   -5.6448   -1.5100 C.3     1  UNL1        0.1104
     38 C          -1.1775   -8.5851   -1.0620 C.ar    1  UNL1        0.0568
     39 C           3.3160   -4.5621   -0.6220 C.3     1  UNL1        0.1073
     40 C          -1.8207   -6.4425   -2.0790 C.ar    1  UNL1        0.1341
     41 C          -2.4775   -9.0731   -1.3623 C.ar    1  UNL1        0.0535
     42 C          -3.0615   -6.9314   -2.3003 C.ar    1  UNL1        0.1356
     43 C          11.5486   -2.6689   -1.3632 C.ar    1  UNL1        0.1472
     44 C           2.5392   -3.2322   -0.4643 C.3     1  UNL1        0.0875
     45 C          -0.3158   -9.4275   -0.3312 C.ar    1  UNL1       -0.0353
     46 C          -2.8072  -10.4048   -1.1149 C.ar    1  UNL1       -0.0356
     47 C          -0.6565  -10.7708   -0.0608 C.ar    1  UNL1       -0.0457
     48 C          -1.8921  -11.2754   -0.5070 C.ar    1  UNL1       -0.0457
     49 C           9.9588   -2.4999   -3.0391 C.ar    1  UNL1        0.1205
     50 C          -4.1022   -6.0338   -2.8621 C.ar    1  UNL1        0.2772
     51 C          -2.4735   -4.2535   -2.9437 C.ar    1  UNL1        0.3282
     52 C           0.3395  -11.6587    0.6386 C.3     1  UNL1       -0.0394
     53 C          -2.3021  -12.7131   -0.3365 C.3     1  UNL1       -0.0394
     54 H           9.5614    1.2616   -4.3507 H       1  UNL1        0.0665
     55 H           8.0119    3.1100   -4.2875 H       1  UNL1        0.0647
     56 H          11.0627    2.7354   -2.1204 H       1  UNL1        0.0866
     57 H           8.2083    3.5070   -1.4268 H       1  UNL1        0.0647
     58 H           7.0792    1.1228   -2.9421 H       1  UNL1        0.0592
     59 H           6.1876    2.6153   -2.5963 H       1  UNL1        0.0592
     60 H          10.6867    3.7510   -4.6858 H       1  UNL1        0.2101
     61 H           9.4139    4.7787   -2.5924 H       1  UNL1        0.2100
     62 H          12.8870    1.6615   -1.1505 H       1  UNL1        0.1030
     63 H           1.3025   -6.3170    0.0196 H       1  UNL1        0.0636
     64 H           0.6376   -6.7902   -2.9380 H       1  UNL1        0.0494
     65 H           1.1919   -8.0048   -1.8205 H       1  UNL1        0.0494
     66 H           2.6476   -5.2788   -2.5451 H       1  UNL1        0.0646
     67 H           4.3146   -4.4084   -1.0385 H       1  UNL1        0.0643
     68 H           1.6244   -3.3362    0.1132 H       1  UNL1        0.0592
     69 H           2.2819   -2.7932   -1.4384 H       1  UNL1        0.0592
     70 H          -4.3779   -8.4705   -2.0562 H       1  UNL1        0.1525
     71 H           0.6343   -9.0489    0.0334 H       1  UNL1        0.0639
     72 H          -3.7780  -10.7791   -1.4328 H       1  UNL1        0.0639
     73 H          -0.6606   -4.7533   -2.2173 H       1  UNL1        0.1717
     74 H           9.3198   -3.0464   -3.7284 H       1  UNL1        0.1048
     75 H           0.0777   -4.6781   -0.2388 H       1  UNL1        0.2100
     76 H           4.0376   -6.7565   -0.6632 H       1  UNL1        0.2100
     77 H           3.8969   -4.3789    1.2281 H       1  UNL1        0.2100
     78 H          -4.4132   -4.1235   -3.5212 H       1  UNL1        0.1735
     79 H          -0.1271  -12.1657    1.4901 H       1  UNL1        0.0278
     80 H           0.7243  -12.4070   -0.0621 H       1  UNL1        0.0278
     81 H           1.1933  -11.0923    1.0236 H       1  UNL1        0.0278
     82 H           6.9020   -0.6209   -1.3167 H       1  UNL1        0.2220
     83 H          11.5807   -4.1663   -0.0451 H       1  UNL1        0.1438
     84 H          12.5548   -2.8088    0.3636 H       1  UNL1        0.1438
     85 H          -2.9620  -12.8166    0.5298 H       1  UNL1        0.0278
     86 H          -2.8315  -13.0607   -1.2312 H       1  UNL1        0.0278
     87 H          -1.4443  -13.3786   -0.2104 H       1  UNL1        0.0278
     88 H           5.2806   -2.0200   -2.3292 H       1  UNL1        0.2220
@<TRIPOS>BOND
     1     1     6    1
     2     1     8    1
     3     1    12    1
     4     1    13    2
     5     2     8    1
     6     2    10    1
     7     2    14    1
     8     2    16    2
     9     3    29    1
    10     3    30    1
    11    27     4    1
    12     4    60    1
    13    28     5    1
    14     5    61    1
    15     6    31    1
    16    35     7    1
    17     7    75    1
    18    37     9    1
    19     9    76    1
    20    10    44    1
    21    39    11    1
    22    11    77    1
    23    12    82    1
    24    14    88    1
    25    15    50    2
    26    17    51    2
    27    18    32   ar
    28    18    33   ar
    29    19    36    1
    30    19    38    1
    31    19    40    1
    32    20    33   ar
    33    20    34   ar
    34    21    32   ar
    35    21    49   ar
    36    22    41    1
    37    22    42    1
    38    22    70    1
    39    23    40   ar
    40    23    51   ar
    41    23    73    1
    42    24    43   ar
    43    24    49   ar
    44    25    50   ar
    45    25    51   ar
    46    25    78    1
    47    26    43    1
    48    26    83    1
    49    26    84    1
    50    27    28    1
    51    27    29    1
    52    27    54    1
    53    28    30    1
    54    28    55    1
    55    30    31    1
    56    30    57    1
    57    31    58    1
    58    31    59    1
    59    32    34   ar
    60    33    62    1
    61    34    43   ar
    62    35    36    1
    63    35    37    1
    64    35    63    1
    65    36    64    1
    66    36    65    1
    67    37    39    1
    68    37    66    1
    69    38    41   ar
    70    38    45   ar
    71    39    44    1
    72    39    67    1
    73    40    42   ar
    74    41    46   ar
    75    42    50   ar
    76    44    68    1
    77    44    69    1
    78    45    47   ar
    79    45    71    1
    80    46    48   ar
    81    46    72    1
    82    47    48   ar
    83    47    52    1
    84    48    53    1
    85    49    74    1
    86    52    79    1
    87    52    80    1
    88    52    81    1
    89    53    85    1
    90    53    86    1
    91    53    87    1
    92    29    56    1
    93    29    18    1
