@<TRIPOS>MOLECULE
fmn
 52 54 0 0 0
SMALL
GASTEIGER

@<TRIPOS>ATOM
      1 P           5.6846   -0.1430    1.6343 P.3     1  UNL1        0.4724
      2 O           0.5625    1.9804    0.1159 O.3     1  UNL1       -0.3874
      3 O           2.4334    0.4902   -2.6661 O.3     1  UNL1       -0.3865
      4 O           4.3943    2.2246   -1.7277 O.3     1  UNL1       -0.3868
      5 O           4.9750    0.9714    0.7044 O.3     1  UNL1       -0.2841
      6 O          -5.3104    0.8895    1.9591 O.2     1  UNL1       -0.2653
      7 O          -3.2026    4.4357   -0.0664 O.2     1  UNL1       -0.2446
      8 O           5.9762   -1.3657    0.6168 O.3     1  UNL1       -0.3026
      9 O           4.4563   -0.6909    2.5320 O.3     1  UNL1       -0.3026
     10 O           6.8728    0.3406    2.4134 O.2     1  UNL1       -0.2275
     11 N          -1.4166    0.1960   -0.8204 N.ar    1  UNL1       -0.3195
     12 N          -3.4972   -0.7673    0.8439 N.ar    1  UNL1       -0.2368
     13 N          -2.3263    2.3685   -0.4385 N.ar    1  UNL1       -0.1733
     14 N          -4.2576    2.6991    0.9424 N.ar    1  UNL1       -0.2717
     15 C           0.9095    0.9783   -0.8409 C.3     1  UNL1        0.1014
     16 C           2.0935    1.4770   -1.6930 C.3     1  UNL1        0.1106
     17 C          -0.3307    0.6578   -1.6836 C.3     1  UNL1        0.0538
     18 C           3.3468    1.7955   -0.8557 C.3     1  UNL1        0.1073
     19 C          -1.5176   -1.1884   -0.5599 C.ar    1  UNL1        0.0694
     20 C          -2.3323    1.0801   -0.2621 C.ar    1  UNL1        0.1705
     21 C          -2.5616   -1.6433    0.2711 C.ar    1  UNL1        0.0886
     22 C           3.8404    0.5849   -0.0647 C.3     1  UNL1        0.0875
     23 C          -0.6303   -2.1461   -1.0859 C.ar    1  UNL1       -0.0329
     24 C          -3.4118    0.5022    0.6113 C.ar    1  UNL1        0.1712
     25 C          -0.7733   -3.5061   -0.7984 C.ar    1  UNL1       -0.0455
     26 C          -2.6965   -3.0113    0.5535 C.ar    1  UNL1       -0.0311
     27 C          -1.8067   -3.9393    0.0213 C.ar    1  UNL1       -0.0454
     28 C          -4.4415    1.3728    1.2539 C.ar    1  UNL1        0.2817
     29 C           0.1991   -4.4767   -1.3852 C.3     1  UNL1       -0.0394
     30 C          -1.9815   -5.3859    0.3458 C.3     1  UNL1       -0.0394
     31 C          -3.2500    3.2193    0.1295 C.ar    1  UNL1        0.3505
     32 H           1.1939    0.0718   -0.2976 H       1  UNL1        0.0638
     33 H           1.8021    2.3825   -2.2397 H       1  UNL1        0.0646
     34 H          -0.6527    1.5811   -2.1847 H       1  UNL1        0.0519
     35 H          -0.1197   -0.0262   -2.5114 H       1  UNL1        0.0519
     36 H           3.1437    2.6282   -0.1724 H       1  UNL1        0.0643
     37 H           3.0767    0.2168    0.6226 H       1  UNL1        0.0592
     38 H           4.1412   -0.2201   -0.7424 H       1  UNL1        0.0592
     39 H           0.2046   -1.8560   -1.7163 H       1  UNL1        0.0641
     40 H          -0.0205    1.5658    0.7739 H       1  UNL1        0.2100
     41 H          -3.5094   -3.3417    1.1974 H       1  UNL1        0.0642
     42 H           3.1811    0.8356   -3.1832 H       1  UNL1        0.2100
     43 H           5.1747    2.4081   -1.1770 H       1  UNL1        0.2100
     44 H           0.9498   -3.9776   -2.0078 H       1  UNL1        0.0278
     45 H           0.7388   -5.0073   -0.5939 H       1  UNL1        0.0278
     46 H          -0.3172   -5.2016   -2.0230 H       1  UNL1        0.0278
     47 H          -2.8426   -5.5539    1.0020 H       1  UNL1        0.0278
     48 H          -2.1526   -5.9680   -0.5656 H       1  UNL1        0.0278
     49 H          -1.0995   -5.7741    0.8656 H       1  UNL1        0.0278
     50 H          -4.9158    3.3635    1.3395 H       1  UNL1        0.1735
     51 H           6.4661   -2.1496    0.9450 H       1  UNL1        0.2220
     52 H           4.6438   -1.3256    3.2559 H       1  UNL1        0.2220
@<TRIPOS>BOND
     1     1     5    1
     2     1     8    1
     3     1     9    1
     4     1    10    2
     5     2    15    1
     6     2    40    1
     7     3    16    1
     8     3    42    1
     9     4    18    1
    10     4    43    1
    11     5    22    1
    12     6    28    2
    13     7    31    2
    14     8    51    1
    15     9    52    1
    16    11    17    1
    17    11    19   ar
    18    11    20   ar
    19    12    21   ar
    20    12    24   ar
    21    13    20   ar
    22    13    31   ar
    23    14    28   ar
    24    14    31   ar
    25    14    50    1
    26    15    16    1
    27    15    17    1
    28    15    32    1
    29    16    18    1
    30    16    33    1
    31    17    34    1
    32    17    35    1
    33    18    22    1
    34    18    36    1
    35    19    21   ar
    36    19    23   ar
    37    20    24    1
    38    21    26   ar
    39    22    37    1
    40    22    38    1
    41    23    25   ar
    42    23    39    1
    43    24    28   ar
    44    25    27   ar
    45    25    29    1
    46    26    27   ar
    47    26    41    1
    48    27    30    1
    49    29    44    1
    50    29    45    1
    51    29    46    1
    52    30    47    1
    53    30    48    1
    54    30    49    1
