@<TRIPOS>MOLECULE
glutathione_disulfide_gssg
 72 71 0 0 0
SMALL
GASTEIGER

@<TRIPOS>ATOM
      1 SG          6.1401    4.7374   -0.1495 S.3     1  UNL1       -0.0907
      2 SG          5.4845    6.9019   -0.0113 S.3     1  UNL1       -0.0907
      3 O          10.3474    3.3786   -2.3786 O.2     1  UNL1       -0.2758
      4 O           3.6404   10.9827    0.8690 O.2     1  UNL1       -0.2758
      5 O           6.5412    1.3859   -4.3132 O.2     1  UNL1       -0.2737
      6 O           0.1180    7.6516    0.9962 O.2     1  UNL1       -0.2737
      7 O          12.7752    0.5410   -5.4677 O.3     1  UNL1       -0.4795
      8 O           6.3451   13.7797   -3.2860 O.3     1  UNL1       -0.4795
      9 OXT        13.9292    0.3191   -3.5556 O.2     1  UNL1       -0.2493
     10 OXT         4.9098   12.0961   -3.7689 O.2     1  UNL1       -0.2493
     11 O           9.0612    4.0350   -7.2569 O.3     1  UNL1       -0.4795
     12 O          -2.3767    8.1397    2.9360 O.3     1  UNL1       -0.4795
     13 OXT        10.7995    4.9777   -6.1941 O.2     1  UNL1       -0.2492
     14 OXT        -2.9540   10.2617    3.4542 O.2     1  UNL1       -0.2492
     15 N           8.6608    1.9380   -1.8937 N.am    1  UNL1       -0.3032
     16 N           2.7751    9.1752   -0.2727 N.am    1  UNL1       -0.3032
     17 N           8.2071    2.6169   -5.0311 N.am    1  UNL1       -0.3033
     18 N           0.7297    9.3171    2.3533 N.am    1  UNL1       -0.3033
     19 N          11.5635   -1.7516   -3.9427 N.3     1  UNL1       -0.3184
     20 N           4.7343   14.8505   -1.5738 N.3     1  UNL1       -0.3184
     21 CA          7.4723    2.7016   -2.4491 C.3     1  UNL1        0.1091
     22 CA          2.6172    8.1223    0.7750 C.3     1  UNL1        0.1091
     23 C          11.2498   -0.1417   -2.1283 C.3     1  UNL1       -0.0191
     24 C           3.1433   12.8464   -1.5671 C.3     1  UNL1       -0.0191
     25 C          11.0605    1.2633   -1.5269 C.3     1  UNL1        0.0259
     26 C           2.8771   11.3120   -1.4485 C.3     1  UNL1        0.0259
     27 CB          7.0505    4.2417   -2.0104 C.3     1  UNL1        0.0309
     28 CB          3.9866    7.5249    1.4031 C.3     1  UNL1        0.0309
     29 CA         11.5320   -0.2946   -3.6304 C.3     1  UNL1        0.1037
     30 CA          4.6032   13.3526   -1.6812 C.3     1  UNL1        0.1037
     31 C           9.9918    2.2675   -1.9981 C.2     1  UNL1        0.2137
     32 C           3.1802   10.5007   -0.1575 C.2     1  UNL1        0.2137
     33 C           7.3614    2.2543   -3.9811 C.2     1  ACE1        0.2346
     34 C           1.0623    8.3211    1.4454 C.2     1  ACE1        0.2346
     35 C          12.8544    0.2764   -4.1300 C.2     1  UNL1        0.3217
     36 C           5.2733   12.9752   -3.0147 C.2     1  UNL1        0.3217
     37 CA          9.4245    3.4205   -4.9415 C.3     1  UNL1        0.1089
     38 CA         -0.6630    9.9302    2.6143 C.3     1  UNL1        0.1089
     39 C           9.8436    4.2299   -6.1729 C.2     1  UNL1        0.3221
     40 C          -2.1017    9.4551    3.0565 C.2     1  UNL1        0.3221
     41 HA          6.6403    2.1262   -2.0225 H       1  UNL1        0.0603
     42 HA          2.3778    7.2404    0.1642 H       1  UNL1        0.0603
     43 H          12.0883   -0.6038   -1.5801 H       1  UNL1        0.0290
     44 H          10.3638   -0.7387   -1.8819 H       1  UNL1        0.0290
     45 H           2.6110   13.1763   -2.4737 H       1  UNL1        0.0290
     46 H           2.6485   13.3466   -0.7269 H       1  UNL1        0.0290
     47 H          12.0275    1.7798   -1.6049 H       1  UNL1        0.0359
     48 H          10.8850    1.1304   -0.4528 H       1  UNL1        0.0359
     49 H           3.3053   10.7803   -2.3041 H       1  UNL1        0.0359
     50 H           1.7841   11.2157   -1.5485 H       1  UNL1        0.0359
     51 HB1         6.2444    4.5376   -2.6887 H       1  UNL1        0.0407
     52 HB2         7.9010    4.9176   -2.1258 H       1  UNL1        0.0407
     53 HB1         3.8172    6.6833    2.0860 H       1  UNL1        0.0407
     54 HB2         4.4880    8.3146    1.9875 H       1  UNL1        0.0407
     55 HA         10.7144    0.1664   -4.1865 H       1  UNL1        0.0574
     56 HA          5.2006   12.9234   -0.8770 H       1  UNL1        0.0574
     57 H           8.4716    0.9570   -1.7158 H       1  UNL1        0.1495
     58 H           2.3196    8.9322   -1.1438 H       1  UNL1        0.1495
     59 H           8.1540    1.9327   -5.7570 H       1  UNL1        0.1493
     60 H           1.4390   10.0403    2.4229 H       1  UNL1        0.1493
     61 H1         12.4212   -2.1584   -3.5607 H       1  UNL1        0.1190
     62 H2         11.6386   -1.8588   -4.9592 H       1  UNL1        0.1190
     63 H1          4.5479   15.2916   -2.4821 H       1  UNL1        0.1190
     64 H2          4.0062   15.2238   -0.9599 H       1  UNL1        0.1190
     65 HA1         9.2695    4.1441   -4.1456 H       1  UNL1        0.0577
     66 HA2        10.2497    2.7289   -4.7485 H       1  UNL1        0.0577
     67 HA1        -0.4385   10.5953    3.4437 H       1  UNL1        0.0577
     68 HA2        -0.8807   10.5330    1.7302 H       1  UNL1        0.0577
     69 H          13.7021    0.6869   -5.7462 H       1  UNL1        0.2951
     70 H           6.4301   14.4314   -2.5500 H       1  UNL1        0.2951
     71 H           8.2961    3.4626   -7.0641 H       1  UNL1        0.2951
     72 H          -1.7357    7.6279    2.4195 H       1  UNL1        0.2951
@<TRIPOS>BOND
     1     1     2    1
     2     1    27    1
     3     2    28    1
     4     3    31    2
     5     4    32    2
     6     5    33    2
     7     6    34    2
     8     7    35    1
     9     7    69    1
    10     8    36    1
    11     8    70    1
    12     9    35    2
    13    10    36    2
    14    11    39    1
    15    11    71    1
    16    12    40    1
    17    12    72    1
    18    13    39    2
    19    14    40    2
    20    15    31   am
    21    15    57    1
    22    16    32   am
    23    16    58    1
    24    17    33   am
    25    17    37    1
    26    17    59    1
    27    18    34   am
    28    18    38    1
    29    18    60    1
    30    19    61    1
    31    19    62    1
    32    20    63    1
    33    20    64    1
    34    21    33    1
    35    21    41    1
    36    22    34    1
    37    22    42    1
    38    23    25    1
    39    23    43    1
    40    23    44    1
    41    24    26    1
    42    24    45    1
    43    24    46    1
    44    25    31    1
    45    25    47    1
    46    25    48    1
    47    26    32    1
    48    26    49    1
    49    26    50    1
    50    27    51    1
    51    27    52    1
    52    28    53    1
    53    28    54    1
    54    29    35    1
    55    29    55    1
    56    30    36    1
    57    30    56    1
    58    37    39    1
    59    37    65    1
    60    37    66    1
    61    38    40    1
    62    38    67    1
    63    38    68    1
    64    21    27    1
    65    21    15    1
    66    22    28    1
    67    22    16    1
    68    29    23    1
    69    29    19    1
    70    30    24    1
    71    30    20    1
