@<TRIPOS>MOLECULE
heme_b
 75 82 0 0 0
SMALL
GASTEIGER

@<TRIPOS>ATOM
      1 C           2.4510    0.8270    0.2210 C.2     1  UNL1        0.0000
      2 C          -1.8100    3.0250    0.4850 C.2     1  UNL1        0.0000
      3 C          -4.0280   -1.2260    0.0430 C.2     1  UNL1        0.0000
      4 C           0.2480   -3.4420    0.1520 C.2     1  UNL1        0.0000
      5 C           1.5050    1.8460    0.3210 C.2     1  UNL1        0.0000
      6 C           1.7530    3.2030    0.4080 C.2     1  UNL1        0.0000
      7 C           0.5430    3.8260    0.4820 C.2     1  UNL1        0.0000
      8 C          -0.4260    2.8510    0.4300 C.2     1  UNL1        0.0000
      9 C           0.3370    5.3160    0.5870 C.3     1  UNL1        0.0000
     10 C           3.1060    3.8700    0.4220 C.3     1  UNL1        0.0000
     11 C           3.6580    4.1900   -0.9640 C.3     1  UNL1        0.0000
     12 C           5.0330    4.8510   -0.9620 C.2     1  UNL1        0.0000
     13 O           6.0380    4.1120   -0.9100 O.2     1  UNL1       -0.5000
     14 O           5.0830    6.0980   -1.0140 O.co2   1  UNL1       -0.5000
     15 C          -2.8360    2.0910    0.3350 C.2     1  UNL1        0.0000
     16 C          -4.2000    2.3630    0.2740 C.2     1  UNL1        0.0000
     17 C          -4.8810    1.1410    0.1090 C.2     1  UNL1        0.0000
     18 C          -3.8800    0.1690    0.1310 C.2     1  UNL1        0.0000
     19 C          -4.8530    3.7200    0.2990 C.3     1  UNL1        0.0000
     20 C          -6.3650    1.0250    0.0190 C.2     1  UNL1        0.0000
     21 C          -7.1650    0.0790   -0.4140 C.2     1  UNL1        0.0000
     22 C          -3.0790   -2.2490    0.0090 C.2     1  UNL1        0.0000
     23 C          -3.3360   -3.6130   -0.1140 C.2     1  UNL1        0.0000
     24 C          -2.1020   -4.2910   -0.1120 C.2     1  UNL1        0.0000
     25 C          -1.1440   -3.2890    0.0450 C.2     1  UNL1        0.0000
     26 C          -4.6830   -4.2680   -0.2780 C.3     1  UNL1        0.0000
     27 C          -1.9650   -5.7730   -0.2120 C.2     1  UNL1        0.0000
     28 C          -0.9580   -6.5610   -0.5140 C.2     1  UNL1        0.0000
     29 C           1.2740   -2.4960    0.1450 C.2     1  UNL1        0.0000
     30 C           2.6290   -2.7300    0.1200 C.2     1  UNL1        0.0000
     31 C           3.2560   -1.5210    0.1320 C.2     1  UNL1        0.0000
     32 C           2.2680   -0.5560    0.1860 C.2     1  UNL1        0.0000
     33 C           3.3350   -4.0610    0.0680 C.3     1  UNL1        0.0000
     34 C           4.7460   -1.2890    0.1160 C.3     1  UNL1        0.0000
     35 C           5.3710   -1.1550    1.5020 C.3     1  UNL1        0.0000
     36 C           6.8480   -0.7690    1.4970 C.2     1  UNL1        0.0000
     37 O           7.1350    0.4460    1.4490 O.2     1  UNL1       -0.5000
     38 O           7.6940   -1.6870    1.5400 O.co2   1  UNL1       -0.5000
     39 N           0.1610    1.6240    0.3370 N.pl3   1  UNL1       -1.0000
     40 N          -2.6200    0.7500    0.2650 N.2     1  UNL1        0.0000
     41 N          -1.7410   -2.0320    0.1230 N.pl3   1  UNL1       -1.0000
     42 N           1.0420   -1.1530    0.1930 N.2     1  UNL1        0.0000
     43 FE         -0.7910   -0.2070    0.2720 Fe      1  UNL1        0.0000
     44 H          -2.0960    3.8990    0.7020 H       1  UNL1        0.0000
     45 H          -4.9260   -1.5160    0.0610 H       1  UNL1        0.0000
     46 H           0.5200   -4.3290    0.3270 H       1  UNL1        0.0000
     47 H          -0.5650    5.5520    0.3190 H       1  UNL1        0.0000
     48 H           0.9610    5.7790    0.0040 H       1  UNL1        0.0000
     49 H           0.4840    5.6010    1.5030 H       1  UNL1        0.0000
     50 H           3.7490    3.2930    0.8890 H       1  UNL1        0.0000
     51 H           3.0620    4.7020    0.9420 H       1  UNL1        0.0000
     52 H           3.0240    4.7850   -1.4280 H       1  UNL1        0.0000
     53 H           3.7120    3.3540   -1.4830 H       1  UNL1        0.0000
     54 H          -5.6510    3.7160   -0.2530 H       1  UNL1        0.0000
     55 H          -4.2430    4.3900   -0.0470 H       1  UNL1        0.0000
     56 H          -5.0960    3.9470    1.2120 H       1  UNL1        0.0000
     57 H          -6.8490    1.7560    0.3710 H       1  UNL1        0.0000
     58 H          -8.0990    0.1830   -0.3340 H       1  UNL1        0.0000
     59 H          -6.8130   -0.6840   -0.8400 H       1  UNL1        0.0000
     60 H          -4.6000   -5.0680   -0.8200 H       1  UNL1        0.0000
     61 H          -5.2980   -3.6610   -0.7190 H       1  UNL1        0.0000
     62 H          -5.0370   -4.5060    0.5940 H       1  UNL1        0.0000
     63 H          -2.7360   -6.2680    0.0160 H       1  UNL1        0.0000
     64 H          -1.0670   -7.4970   -0.4720 H       1  UNL1        0.0000
     65 H          -0.1400   -6.1960   -0.8080 H       1  UNL1        0.0000
     66 H           3.9820   -4.0610   -0.6560 H       1  UNL1        0.0000
     67 H           2.7000   -4.7780   -0.0820 H       1  UNL1        0.0000
     68 H           3.7970   -4.2150    0.9080 H       1  UNL1        0.0000
     69 H           4.9420   -0.4730   -0.3950 H       1  UNL1        0.0000
     70 H           5.1940   -2.0200   -0.3620 H       1  UNL1        0.0000
     71 H           5.2740   -2.0130    1.9770 H       1  UNL1        0.0000
     72 H           4.8710   -0.4770    2.0110 H       1  UNL1        0.0000
     73 H           4.9536    6.3812   -1.9327 H       1 UNL1 0.0000
     74 H           8.1055   -1.7784    0.6664 H       1 UNL1 0.0000
     75 H           3.3490    1.1170    0.1540 H       1  UNL1        0.0000
@<TRIPOS>UNITY_ATOM_ATTR
14 1
charge -1
38 1
charge -1
39 1
charge -1
41 1
charge -1
@<TRIPOS>BOND
     1     1     5    1
     2     1    32    2
     3     1    75    1
     4     2     8    1
     5     2    15    2
     6     2    44    1
     7     3    18    1
     8     3    22    2
     9     3    45    1
    10     4    25    2
    11     4    29    1
    12     4    46    1
    13     5     6    2
    14     5    39    1
    15     6     7    1
    16     6    10    1
    17     7     8    2
    18     7     9    1
    19     8    39    1
    20     9    47    1
    21     9    48    1
    22     9    49    1
    23    10    11    1
    24    10    50    1
    25    10    51    1
    26    11    12    1
    27    11    52    1
    28    11    53    1
    29    12    13    2
    30    12    14    1
    31    14    73    1
    32    15    16    1
    33    15    40    1
    34    16    17    2
    35    16    19    1
    36    17    18    1
    37    17    20    1
    38    18    40    2
    39    19    54    1
    40    19    55    1
    41    19    56    1
    42    20    21    2
    43    20    57    1
    44    21    58    1
    45    21    59    1
    46    22    23    1
    47    22    41    1
    48    23    24    2
    49    23    26    1
    50    24    25    1
    51    24    27    1
    52    25    41    1
    53    26    60    1
    54    26    61    1
    55    26    62    1
    56    27    28    2
    57    27    63    1
    58    28    64    1
    59    28    65    1
    60    29    30    1
    61    29    42    2
    62    30    31    2
    63    30    33    1
    64    31    32    1
    65    31    34    1
    66    32    42    1
    67    33    66    1
    68    33    67    1
    69    33    68    1
    70    34    35    1
    71    34    69    1
    72    34    70    1
    73    35    36    1
    74    35    71    1
    75    35    72    1
    76    36    37    2
    77    36    38    1
    78    38    74    1
    79    43    39    1
    80    43    40    1
    81    43    41    1
    82    43    42    1
