@<TRIPOS>MOLECULE
heme_a
 116 123 0 0 0
SMALL
GASTEIGER

@<TRIPOS>ATOM
      1 FE         -3.7470    0.2130    0.3620 Fe      1  UNL1        0.0000
      2 C          -7.1300    0.6090    0.2570 C.2     1  UNL1        0.0000
      3 C          -3.4210    3.3700    1.6180 C.2     1  UNL1        0.0000
      4 C          -0.4420   -0.3340    0.9100 C.2     1  UNL1        0.0000
      5 C          -4.1190   -3.0200   -0.6660 C.2     1  UNL1        0.0000
      6 N          -5.0770    1.7260    0.8890 N.pl3   1  UNL1       -1.0000
      7 C          -6.4200    1.7370    0.6750 C.2     1  UNL1        0.0000
      8 C          -6.9360    3.0020    0.9100 C.2     1  UNL1        0.0000
      9 C          -5.8640    3.8380    1.3130 C.2     1  UNL1        0.0000
     10 C          -4.7410    3.0140    1.2910 C.2     1  UNL1        0.0000
     11 C          -5.9920    5.2480    1.6480 C.2     1  UNL1        0.0000
     12 O          -5.1080    5.9810    2.0380 O.2     1  UNL1        0.0000
     13 C          -8.3730    3.4220    0.7610 C.3     1  UNL1        0.0000
     14 C          -8.7200    3.9050   -0.6440 C.3     1  UNL1        0.0000
     15 C         -10.1620    4.3730   -0.8190 C.2     1  UNL1        0.0000
     16 O         -11.0130    3.5290   -1.1700 O.2     1  UNL1       -0.5000
     17 O         -10.4180    5.5760   -0.6020 O.co2   1  UNL1       -0.5000
     18 N          -2.1750    1.3440    1.1450 N.2     1  UNL1        0.0000
     19 C          -2.2460    2.6150    1.6320 C.2     1  UNL1        0.0000
     20 C          -1.0290    2.9830    2.1540 C.2     1  UNL1        0.0000
     21 C          -0.1530    1.9320    1.9610 C.2     1  UNL1        0.0000
     22 C          -0.8900    0.9270    1.3170 C.2     1  UNL1        0.0000
     23 C          -0.6710    4.2970    2.8040 C.3     1  UNL1        0.0000
     24 N          -2.4770   -1.4320    0.1860 N.pl3   1  UNL1       -1.0000
     25 C          -1.1330   -1.4290    0.3810 C.2     1  UNL1        0.0000
     26 C          -0.5890   -2.6440   -0.0350 C.2     1  UNL1        0.0000
     27 C          -1.6440   -3.4650   -0.4880 C.2     1  UNL1        0.0000
     28 C          -2.7900   -2.6810   -0.3500 C.2     1  UNL1        0.0000
     29 C           0.8590   -3.0540    0.0050 C.3     1  UNL1        0.0000
     30 C          -1.4390   -4.8420   -1.0330 C.2     1  UNL1        0.0000
     31 C          -2.2450   -5.8340   -1.3330 C.2     1  UNL1        0.0000
     32 N          -5.3610   -1.0070   -0.1230 N.2     1  UNL1        0.0000
     33 C          -5.3130   -2.3120   -0.5060 C.2     1  UNL1        0.0000
     34 C          -6.5890   -2.7980   -0.6620 C.2     1  UNL1        0.0000
     35 C          -7.4520   -1.7710   -0.4070 C.2     1  UNL1        0.0000
     36 C          -6.6800   -0.6690   -0.0840 C.2     1  UNL1        0.0000
     37 C          -6.9820   -4.1980   -1.0600 C.3     1  UNL1        0.0000
     38 C          -8.9590   -1.8350   -0.4650 C.3     1  UNL1        0.0000
     39 C          -9.6350   -2.2730    0.8320 C.3     1  UNL1        0.0000
     40 C          -9.5570   -1.2660    1.9770 C.2     1  UNL1        0.0000
     41 O         -10.4050   -0.3500    2.0110 O.2     1  UNL1       -0.5000
     42 O          -8.6480   -1.4100    2.8210 O.co2   1  UNL1       -0.5000
     43 C           1.3110    1.9060    2.3670 C.3     1  UNL1        0.0000
     44 O           1.5890    0.6770    3.0610 O.3     1  UNL1        0.0000
     45 C           2.2480    2.1260    1.1600 C.3     1  UNL1        0.0000
     46 C           3.6450    2.6680    1.4960 C.3     1  UNL1        0.0000
     47 C           4.5640    2.8600    0.3170 C.2     1  UNL1        0.0000
     48 C           5.9070    2.9390    0.2580 C.2     1  UNL1        0.0000
     49 C           6.6060    3.0650   -1.0850 C.3     1  UNL1        0.0000
     50 C           6.6290    1.7900   -1.9510 C.3     1  UNL1        0.0000
     51 C           7.4660    0.6710   -1.3810 C.2     1  UNL1        0.0000
     52 C           8.7900    0.4330   -1.4440 C.2     1  UNL1        0.0000
     53 C           9.3800   -0.7650   -0.7210 C.3     1  UNL1        0.0000
     54 C           9.3270   -2.0880   -1.5110 C.3     1  UNL1        0.0000
     55 C           9.7630   -3.3070   -0.7310 C.2     1  UNL1        0.0000
     56 C           9.6960   -4.6080   -1.0360 C.2     1  UNL1        0.0000
     57 C           9.1570   -5.1980   -2.3350 C.3     1  UNL1        0.0000
     58 C          10.1740   -5.6680   -0.0530 C.3     1  UNL1        0.0000
     59 C           6.8420    2.9430    1.4510 C.3     1  UNL1        0.0000
     60 C           9.8030    1.2710   -2.1970 C.3     1  UNL1        0.0000
     61 H          -8.0660    0.7270    0.1930 H       1  UNL1        0.0000
     62 H          -3.3130    4.2840    1.8300 H       1  UNL1        0.0000
     63 H           0.4940   -0.4460    0.9770 H       1  UNL1        0.0000
     64 H          -4.2090   -3.8470   -1.1110 H       1  UNL1        0.0000
     65 H          -6.8400    5.6410    1.5410 H       1  UNL1        0.0000
     66 H          -8.5780    4.1390    1.4000 H       1  UNL1        0.0000
     67 H          -8.9630    2.6730    0.9930 H       1  UNL1        0.0000
     68 H          -8.5500    3.1720   -1.2810 H       1  UNL1        0.0000
     69 H          -8.1190    4.6480   -0.8810 H       1  UNL1        0.0000
     70 H         -11.0744    5.8807   -1.2479 H       1 UNL1 0.0000
     71 H          -0.2010    4.1360    3.6380 H       1  UNL1        0.0000
     72 H          -1.4700    4.8100    2.9970 H       1  UNL1        0.0000
     73 H          -0.1000    4.8080    2.2080 H       1  UNL1        0.0000
     74 H           0.9320   -3.9860    0.2640 H       1  UNL1        0.0000
     75 H           1.3440   -2.5170    0.6510 H       1  UNL1        0.0000
     76 H           1.2550   -2.9340   -0.8730 H       1  UNL1        0.0000
     77 H          -0.5450   -5.0650   -1.2410 H       1  UNL1        0.0000
     78 H          -1.8950   -6.6200   -1.7180 H       1  UNL1        0.0000
     79 H          -3.1640   -5.7800   -1.1340 H       1  UNL1        0.0000
     80 H          -7.8160   -4.4460   -0.6310 H       1  UNL1        0.0000
     81 H          -6.2970   -4.8280   -0.7860 H       1  UNL1        0.0000
     82 H          -7.0920   -4.2430   -2.0240 H       1  UNL1        0.0000
     83 H          -9.2340   -2.4470   -1.1820 H       1  UNL1        0.0000
     84 H          -9.3140   -0.9550   -0.7180 H       1  UNL1        0.0000
     85 H          -9.2250   -3.1170    1.1310 H       1  UNL1        0.0000
     86 H         -10.5840   -2.4570    0.6450 H       1  UNL1        0.0000
     87 H          -8.6731   -2.3184    3.1602 H       1 UNL1 0.0000
     88 H           1.4850    2.6450    3.0080 H       1  UNL1        0.0000
     89 H           2.3300    0.7320    3.4840 H       1  UNL1        0.0000
     90 H           1.8170    2.7480    0.5370 H       1  UNL1        0.0000
     91 H           2.3520    1.2730    0.6880 H       1  UNL1        0.0000
     92 H           4.0690    2.0550    2.1340 H       1  UNL1        0.0000
     93 H           3.5440    3.5270    1.9600 H       1  UNL1        0.0000
     94 H           4.1080    2.9520   -0.5150 H       1  UNL1        0.0000
     95 H           7.5310    3.3540   -0.9410 H       1  UNL1        0.0000
     96 H           6.1620    3.7730   -1.5960 H       1  UNL1        0.0000
     97 H           6.9560    2.0170   -2.8440 H       1  UNL1        0.0000
     98 H           5.7120    1.4700   -2.0680 H       1  UNL1        0.0000
     99 H           6.9500    0.0330   -0.8990 H       1  UNL1        0.0000
    100 H           8.8990   -0.8890    0.1230 H       1  UNL1        0.0000
    101 H          10.3150   -0.5760   -0.4940 H       1  UNL1        0.0000
    102 H           9.8900   -2.0040   -2.3060 H       1  UNL1        0.0000
    103 H           8.4130   -2.2270   -1.8300 H       1  UNL1        0.0000
    104 H          10.1560   -3.0980    0.1120 H       1  UNL1        0.0000
    105 H           8.8780   -4.4950   -2.9380 H       1  UNL1        0.0000
    106 H           8.3950   -5.7680   -2.1450 H       1  UNL1        0.0000
    107 H           9.8480   -5.7240   -2.7680 H       1  UNL1        0.0000
    108 H          10.4990   -5.2530    0.7610 H       1  UNL1        0.0000
    109 H          10.8940   -6.1830   -0.4500 H       1  UNL1        0.0000
    110 H           9.4410   -6.2640    0.1700 H       1  UNL1        0.0000
    111 H           6.3420    2.9110    2.2780 H       1  UNL1        0.0000
    112 H           7.3790    3.7510    1.4420 H       1  UNL1        0.0000
    113 H           7.4280    2.1720    1.4070 H       1  UNL1        0.0000
    114 H           9.3700    2.0110   -2.6430 H       1  UNL1        0.0000
    115 H          10.2500    0.7230   -2.8610 H       1  UNL1        0.0000
    116 H          10.4620    1.6200   -1.5770 H       1  UNL1        0.0000
@<TRIPOS>UNITY_ATOM_ATTR
6 1
charge -1
17 1
charge -1
24 1
charge -1
42 1
charge -1
@<TRIPOS>BOND
     1     1     6    1
     2     1    18    1
     3     1    24    1
     4     1    32    1
     5     2     7    2
     6     2    36    1
     7     2    61    1
     8     3    10    2
     9     3    19    1
    10     3    62    1
    11     4    22    2
    12     4    25    1
    13     4    63    1
    14     5    28    1
    15     5    33    2
    16     5    64    1
    17     6     7    1
    18     6    10    1
    19     7     8    1
    20     8     9    2
    21     8    13    1
    22     9    10    1
    23     9    11    1
    24    11    12    2
    25    11    65    1
    26    13    14    1
    27    13    66    1
    28    13    67    1
    29    14    15    1
    30    14    68    1
    31    14    69    1
    32    15    16    2
    33    15    17    1
    34    17    70    1
    35    18    19    2
    36    18    22    1
    37    19    20    1
    38    20    21    2
    39    20    23    1
    40    21    22    1
    41    21    43    1
    42    23    71    1
    43    23    72    1
    44    23    73    1
    45    24    25    1
    46    24    28    1
    47    25    26    2
    48    26    27    1
    49    26    29    1
    50    27    28    2
    51    27    30    1
    52    29    74    1
    53    29    75    1
    54    29    76    1
    55    30    31    2
    56    30    77    1
    57    31    78    1
    58    31    79    1
    59    32    33    1
    60    32    36    2
    61    33    34    1
    62    34    35    2
    63    34    37    1
    64    35    36    1
    65    35    38    1
    66    37    80    1
    67    37    81    1
    68    37    82    1
    69    38    39    1
    70    38    83    1
    71    38    84    1
    72    39    40    1
    73    39    85    1
    74    39    86    1
    75    40    41    2
    76    40    42    1
    77    42    87    1
    78    43    44    1
    79    43    45    1
    80    43    88    1
    81    44    89    1
    82    45    46    1
    83    45    90    1
    84    45    91    1
    85    46    47    1
    86    46    92    1
    87    46    93    1
    88    47    48    2
    89    47    94    1
    90    48    49    1
    91    48    59    1
    92    49    50    1
    93    49    95    1
    94    49    96    1
    95    50    51    1
    96    50    97    1
    97    50    98    1
    98    51    52    2
    99    51    99    1
   100    52    53    1
   101    52    60    1
   102    53    54    1
   103    53   100    1
   104    53   101    1
   105    54    55    1
   106    54   102    1
   107    54   103    1
   108    55    56    2
   109    55   104    1
   110    56    57    1
   111    56    58    1
   112    57   105    1
   113    57   106    1
   114    57   107    1
   115    58   108    1
   116    58   109    1
   117    58   110    1
   118    59   111    1
   119    59   112    1
   120    59   113    1
   121    60   114    1
   122    60   115    1
   123    60   116    1
