@<TRIPOS>MOLECULE
heme_c
 79 86 0 0 0
SMALL
GASTEIGER

@<TRIPOS>ATOM
      1 FE         -0.5390   -0.0550    0.2550 Fe      1  UNL1        0.0000
      2 C           2.6790    1.0670    0.3040 C.2     1  UNL1        0.0000
      3 C          -1.6600    3.1660    0.2930 C.2     1  UNL1        0.0000
      4 C          -3.7520   -1.1760    0.1520 C.2     1  UNL1        0.0000
      5 C           0.5860   -3.2730    0.2610 C.2     1  UNL1        0.0000
      6 N           0.3690    1.8290    0.2930 N.pl3   1  UNL1       -1.0000
      7 C           1.7040    2.0760    0.3100 C.2     1  UNL1        0.0000
      8 C           1.9100    3.4430    0.3340 C.2     1  UNL1        0.0000
      9 C           0.6790    4.0370    0.3230 C.2     1  UNL1        0.0000
     10 C          -0.2610    3.0340    0.3040 C.2     1  UNL1        0.0000
     11 C           0.4220    5.5230    0.3420 C.3     1  UNL1        0.0000
     12 C           3.2450    4.1430    0.3560 C.3     1  UNL1        0.0000
     13 C           3.8410    4.3870   -1.0280 C.3     1  UNL1        0.0000
     14 C           5.2530    4.9660   -1.0170 C.2     1  UNL1        0.0000
     15 O           6.2100    4.1750   -0.8840 O.2     1  UNL1       -0.5000
     16 O           5.3790    6.2020   -1.1420 O.co2   1  UNL1       -0.5000
     17 N          -2.4170    0.8560    0.2260 N.2     1  UNL1        0.0000
     18 C          -2.6720    2.1920    0.2470 C.2     1  UNL1        0.0000
     19 C          -4.0320    2.3950    0.2140 C.2     1  UNL1        0.0000
     20 C          -4.6270    1.1640    0.1820 C.2     1  UNL1        0.0000
     21 C          -3.6160    0.2210    0.1840 C.2     1  UNL1        0.0000
     22 C          -4.7490    3.7220    0.2260 C.3     1  UNL1        0.0000
     23 C          -6.1100    0.8870    0.1400 C.3     1  UNL1        0.0000
     24 C          -6.6370    0.7240   -1.2800 C.3     1  UNL1        0.0000
     25 N          -1.4480   -1.9400    0.2130 N.pl3   1  UNL1       -1.0000
     26 C          -2.7840   -2.1950    0.1640 C.2     1  UNL1        0.0000
     27 C          -2.9820   -3.5570    0.1270 C.2     1  UNL1        0.0000
     28 C          -1.7510   -4.1510    0.1590 C.2     1  UNL1        0.0000
     29 C          -0.8110   -3.1390    0.2150 C.2     1  UNL1        0.0000
     30 C          -4.3000   -4.2890    0.0750 C.3     1  UNL1        0.0000
     31 C          -1.4690   -5.6330    0.1460 C.3     1  UNL1        0.0000
     32 C          -1.3400   -6.2200    1.5450 C.3     1  UNL1        0.0000
     33 N           1.3440   -0.9660    0.2790 N.2     1  UNL1        0.0000
     34 C           1.6000   -2.3010    0.2790 C.2     1  UNL1        0.0000
     35 C           2.9600   -2.5020    0.2920 C.2     1  UNL1        0.0000
     36 C           3.5540   -1.2710    0.3140 C.2     1  UNL1        0.0000
     37 C           2.5430   -0.3290    0.2980 C.2     1  UNL1        0.0000
     38 C           3.6820   -3.8260    0.3000 C.3     1  UNL1        0.0000
     39 C           5.0360   -0.9890    0.3340 C.3     1  UNL1        0.0000
     40 C           5.6510   -0.7960   -1.0490 C.3     1  UNL1        0.0000
     41 C           7.1340   -0.4370   -1.0380 C.2     1  UNL1        0.0000
     42 O           7.9630   -1.3720   -1.0170 O.2     1  UNL1       -0.5000
     43 O           7.4440    0.7720   -1.0510 O.co2   1  UNL1       -0.5000
     44 H           3.5710    1.3790    0.2870 H       1  UNL1        0.0000
     45 H          -1.9720    4.0570    0.3430 H       1  UNL1        0.0000
     46 H          -4.6460   -1.4790    0.1130 H       1  UNL1        0.0000
     47 H           0.8930   -4.1670    0.3060 H       1  UNL1        0.0000
     48 H          -0.4320    5.7190   -0.0740 H       1  UNL1        0.0000
     49 H           1.1170    5.9880   -0.1500 H       1  UNL1        0.0000
     50 H           0.4110    5.8390    1.2600 H       1  UNL1        0.0000
     51 H           3.8830    3.6130    0.8820 H       1  UNL1        0.0000
     52 H           3.1620    5.0050    0.8180 H       1  UNL1        0.0000
     53 H           3.2530    5.0030   -1.5220 H       1  UNL1        0.0000
     54 H           3.8560    3.5340   -1.5210 H       1  UNL1        0.0000
     55 H           6.1410    6.3856   -1.7135 H       1 UNL1 0.0000
     56 H          -5.5730    3.6600   -0.2820 H       1  UNL1        0.0000
     57 H          -4.1910    4.4060   -0.1760 H       1  UNL1        0.0000
     58 H          -4.9540    3.9720    1.1410 H       1  UNL1        0.0000
     59 H          -6.5980    1.6190    0.5800 H       1  UNL1        0.0000
     60 H          -7.5960    0.5490   -1.2530 H       1  UNL1        0.0000
     61 H          -6.1840   -0.0220   -1.7130 H       1  UNL1        0.0000
     62 H          -6.4710    1.5420   -1.7850 H       1  UNL1        0.0000
     63 H          -4.2540   -5.0080   -0.5750 H       1  UNL1        0.0000
     64 H          -5.0120   -3.6840   -0.1850 H       1  UNL1        0.0000
     65 H          -4.4990   -4.6600    0.9500 H       1  UNL1        0.0000
     66 H          -0.6330   -5.8010   -0.3460 H       1  UNL1        0.0000
     67 H          -1.1580   -7.1760    1.4820 H       1  UNL1        0.0000
     68 H          -2.1720   -6.0810    2.0350 H       1  UNL1        0.0000
     69 H          -0.6090   -5.7820    2.0170 H       1  UNL1        0.0000
     70 H           4.5140   -3.7550   -0.1960 H       1  UNL1        0.0000
     71 H           3.1330   -4.5080   -0.1170 H       1  UNL1        0.0000
     72 H           3.8760   -4.0850    1.2150 H       1  UNL1        0.0000
     73 H           5.5070   -1.7210    0.7890 H       1  UNL1        0.0000
     74 H           5.2060   -0.1820    0.8680 H       1  UNL1        0.0000
     75 H           5.1590   -0.0830   -1.5170 H       1  UNL1        0.0000
     76 H           5.5330   -1.6260   -1.5660 H       1  UNL1        0.0000
     77 H           8.0716    0.9293   -1.7737 H       1 UNL1 0.0000
     78 H          -6.3010    0.0640    0.6460 H       1  UNL1        0.0000
     79 H          -2.1860   -6.1070   -0.3340 H       1  UNL1        0.0000
@<TRIPOS>UNITY_ATOM_ATTR
6 1
charge -1
16 1
charge -1
25 1
charge -1
43 1
charge -1
@<TRIPOS>BOND
     1     1     6    1
     2     1    17    1
     3     1    25    1
     4     1    33    1
     5     2     7    2
     6     2    37    1
     7     2    44    1
     8     3    10    2
     9     3    18    1
    10     3    45    1
    11     4    21    2
    12     4    26    1
    13     4    46    1
    14     5    29    1
    15     5    34    2
    16     5    47    1
    17     6     7    1
    18     6    10    1
    19     7     8    1
    20     8     9    2
    21     8    12    1
    22     9    10    1
    23     9    11    1
    24    11    48    1
    25    11    49    1
    26    11    50    1
    27    12    13    1
    28    12    51    1
    29    12    52    1
    30    13    14    1
    31    13    53    1
    32    13    54    1
    33    14    15    2
    34    14    16    1
    35    16    55    1
    36    17    18    2
    37    17    21    1
    38    18    19    1
    39    19    20    2
    40    19    22    1
    41    20    21    1
    42    20    23    1
    43    22    56    1
    44    22    57    1
    45    22    58    1
    46    23    24    1
    47    23    59    1
    48    24    60    1
    49    24    61    1
    50    24    62    1
    51    25    26    1
    52    25    29    1
    53    26    27    2
    54    27    28    1
    55    27    30    1
    56    28    29    2
    57    28    31    1
    58    30    63    1
    59    30    64    1
    60    30    65    1
    61    31    32    1
    62    31    66    1
    63    32    67    1
    64    32    68    1
    65    32    69    1
    66    33    34    1
    67    33    37    2
    68    34    35    1
    69    35    36    2
    70    35    38    1
    71    36    37    1
    72    36    39    1
    73    38    70    1
    74    38    71    1
    75    38    72    1
    76    39    40    1
    77    39    73    1
    78    39    74    1
    79    40    41    1
    80    40    75    1
    81    40    76    1
    82    41    42    2
    83    41    43    1
    84    43    77    1
    85    78    23    1
    86    79    31    1
