@<TRIPOS>MOLECULE
hmg_coa
 102 104 0 0 0
SMALL
GASTEIGER

@<TRIPOS>ATOM
      1 S           4.0851    4.9363   -6.7639 S.3     1  UNL1       -0.0865
      2 P          -4.5368   -0.7239    5.5954 P.3     1  UNL1        0.4728
      3 P           0.1168   -2.1191    5.2008 P.3     1  UNL1        0.4835
      4 P           1.8043   -4.1528    4.2020 P.3     1  UNL1        0.4834
      5 O          -3.1166   -4.4440    4.3766 O.3     1  UNL1       -0.3456
      6 O          -4.5789   -2.1007    6.6421 O.3     1  UNL1       -0.2780
      7 O          -5.5833   -2.3650    3.9400 O.3     1  UNL1       -0.3846
      8 O          -0.7386   -2.7370    6.4337 O.3     1  UNL1       -0.2837
      9 O          -5.9845   -0.3122    6.2408 O.3     1  UNL1       -0.3026
     10 O          -3.5845   -0.0145    6.7183 O.3     1  UNL1       -0.3026
     11 O           1.2462   -3.3563    5.6328 O.3     1  UNL1       -0.1861
     12 O          -4.4990    0.5083    4.6587 O.2     1  UNL1       -0.2275
     13 O           1.5859   -2.6910    3.3030 O.3     1  UNL1       -0.2857
     14 O           1.1098   -1.1155    6.0398 O.3     1  UNL1       -0.3022
     15 O          -0.8941   -1.0119    4.8141 O.2     1  UNL1       -0.2269
     16 O           3.7347   -1.4229   -0.1057 O.3     1  UNL1       -0.3820
     17 O           0.3229   -4.5377    3.6066 O.3     1  UNL1       -0.3022
     18 O           1.9999   -5.4611    5.0066 O.2     1  UNL1       -0.2269
     19 O           2.8895    2.0776    0.3129 O.2     1  UNL1       -0.2730
     20 O          -0.3057    6.5615   -7.2901 O.3     1  UNL1       -0.3879
     21 O           6.0073    3.8421   -3.7929 O.2     1  UNL1       -0.2758
     22 O           2.4314    6.9696   -6.8049 O.2     1  UNL1       -0.2851
     23 O          -2.7838    5.9615   -6.8424 O.3     1  UNL1       -0.4805
     24 O          -3.1212    4.0982   -5.6069 O.2     1  UNL1       -0.2509
     25 N          -4.9323   -5.9651    4.0310 N.ar    1  UNL1       -0.2855
     26 N          -5.2086   -8.0805    3.3907 N.ar    1  UNL1       -0.2306
     27 N          -4.9028   -6.2660    6.4364 N.ar    1  UNL1       -0.2159
     28 N          -4.7524   -8.5892    7.0482 N.ar    1  UNL1       -0.2188
     29 N          -4.6682  -10.3424    5.5226 N.pl3   1  UNL1       -0.3413
     30 N           3.2213    0.7624   -1.5303 N.am    1  UNL1       -0.3127
     31 N           3.8996    4.6937   -3.4966 N.am    1  UNL1       -0.3145
     32 C          -4.4323   -3.2785    5.8845 C.3     1  UNL1        0.1283
     33 C          -5.3705   -3.5655    4.7108 C.3     1  UNL1        0.1294
     34 C          -3.0445   -3.2874    5.2423 C.3     1  UNL1        0.1142
     35 C          -4.5162   -4.5787    3.9197 C.3     1  UNL1        0.1667
     36 C          -2.0589   -3.2316    6.4454 C.3     1  UNL1        0.0879
     37 C          -4.9616   -6.7056    5.1754 C.ar    1  UNL1        0.1674
     38 C          -5.2418   -6.8207    3.0017 C.ar    1  UNL1        0.1004
     39 C          -4.9906   -8.0216    4.7530 C.ar    1  UNL1        0.1473
     40 C           2.1898   -0.7633    1.7092 C.3     1  UNL1        0.0235
     41 C           3.3510   -0.3198    0.7410 C.3     1  UNL1        0.1380
     42 C          -4.8151   -8.9922    5.7599 C.ar    1  UNL1        0.1472
     43 C           2.5870   -2.1486    2.4337 C.3     1  UNL1        0.0670
     44 C           1.9302    0.3056    2.7958 C.3     1  UNL1       -0.0549
     45 C           0.8878   -0.8462    0.8794 C.3     1  UNL1       -0.0549
     46 C          -4.8229   -7.2772    7.3107 C.ar    1  UNL1        0.1205
     47 C           3.1057    0.9638   -0.1532 C.2     1  UNL1        0.2423
     48 C           3.2958    1.8908   -2.4550 C.3     1  UNL1        0.0199
     49 C           4.6098    2.6510   -2.2828 C.3     1  UNL1        0.0395
     50 C           0.0544    5.3969   -6.5257 C.3     1  UNL1        0.0808
     51 C           1.3749    4.8195   -7.0646 C.3     1  UNL1        0.0453
     52 C           4.8955    3.7533   -3.2875 C.2     1  UNL1        0.2145
     53 C          -1.0328    4.3404   -6.7731 C.3     1  UNL1        0.0737
     54 C           0.1388    5.7761   -5.0390 C.3     1  UNL1       -0.0351
     55 C           4.1904    5.9659   -4.1321 C.3     1  UNL1        0.0210
     56 C           2.5426    5.7498   -6.8641 C.2     1  UNL1        0.1921
     57 C           4.8866    5.9675   -5.5018 C.3     1  UNL1        0.0165
     58 C          -2.4026    4.7787   -6.3246 C.2     1  UNL1        0.3075
     59 H          -4.5238   -4.0829    6.6083 H       1  UNL1        0.0656
     60 H          -6.3608   -3.9270    5.0140 H       1  UNL1        0.0666
     61 H          -2.8885   -2.4304    4.5817 H       1  UNL1        0.0647
     62 H          -4.5336   -4.3350    2.8481 H       1  UNL1        0.0866
     63 H          -2.0565   -4.2028    6.9493 H       1  UNL1        0.0592
     64 H          -2.4847   -2.5291    7.1684 H       1  UNL1        0.0592
     65 H          -5.7946   -2.5875    3.0135 H       1  UNL1        0.2101
     66 H          -5.4514   -6.4900    1.9890 H       1  UNL1        0.1030
     67 H           4.2409   -0.0850    1.3359 H       1  UNL1        0.0696
     68 H           2.8170   -2.9093    1.6842 H       1  UNL1        0.0572
     69 H           3.4851   -1.9753    3.0374 H       1  UNL1        0.0572
     70 H           1.9208    1.3222    2.3908 H       1  UNL1        0.0237
     71 H           0.9533    0.1580    3.2623 H       1  UNL1        0.0237
     72 H           2.6868    0.2742    3.5878 H       1  UNL1        0.0237
     73 H           0.6356    0.1458    0.4717 H       1  UNL1        0.0237
     74 H           0.9741   -1.5224    0.0255 H       1  UNL1        0.0237
     75 H           0.0312   -1.1579    1.4820 H       1  UNL1        0.0237
     76 H          -6.6379   -0.2926    5.5224 H       1  UNL1        0.2220
     77 H          -2.7200    0.2039    6.3173 H       1  UNL1        0.2220
     78 H          -4.8100   -6.9910    8.3583 H       1  UNL1        0.1048
     79 H           1.8966   -0.9155    5.5072 H       1  UNL1        0.2220
     80 H          -5.0604  -10.6571    4.6551 H       1  UNL1        0.1438
     81 H          -4.8920  -10.8518    6.3602 H       1  UNL1        0.1438
     82 H           2.9422   -1.6969   -0.6014 H       1  UNL1        0.2105
     83 H           3.6800   -0.0983   -1.8013 H       1  UNL1        0.1488
     84 H           2.4317    2.5496   -2.2764 H       1  UNL1        0.0467
     85 H           3.2006    1.4878   -3.4802 H       1  UNL1        0.0467
     86 H           0.3614   -5.0011    2.7519 H       1  UNL1        0.2220
     87 H           5.4259    1.9269   -2.3745 H       1  UNL1        0.0374
     88 H           4.6743    3.0902   -1.2945 H       1  UNL1        0.0374
     89 H           1.2989    4.6428   -8.1450 H       1  UNL1        0.0378
     90 H           1.5795    3.8623   -6.5692 H       1  UNL1        0.0378
     91 H          -1.1128    4.1054   -7.8425 H       1  UNL1        0.0406
     92 H          -0.7848    3.4101   -6.2479 H       1  UNL1        0.0406
     93 H           0.3973    4.9130   -4.4197 H       1  UNL1        0.0257
     94 H           0.8764    6.5634   -4.8622 H       1  UNL1        0.0257
     95 H          -0.8103    6.1921   -4.6827 H       1  UNL1        0.0257
     96 H           3.1644    4.7016   -2.7993 H       1  UNL1        0.1487
     97 H           4.8236    6.5333   -3.4161 H       1  UNL1        0.0470
     98 H           3.2417    6.5022   -4.1916 H       1  UNL1        0.0470
     99 H           5.9230    5.6317   -5.4200 H       1  UNL1        0.0396
    100 H           4.9383    6.9975   -5.8817 H       1  UNL1        0.0396
    101 H           0.4321    7.2075   -7.1932 H       1  UNL1        0.2102
    102 H          -2.0393    6.3989   -7.3255 H       1  UNL1        0.2951
@<TRIPOS>BOND
     1     1    56    1
     2     1    57    1
     3     2     6    1
     4     2     9    1
     5     2    10    1
     6     2    12    2
     7     3     8    1
     8     3    11    1
     9     3    14    1
    10     3    15    2
    11     4    11    1
    12     4    13    1
    13     4    17    1
    14     4    18    2
    15     5    34    1
    16     5    35    1
    17    32     6    1
    18    33     7    1
    19     7    65    1
    20     8    36    1
    21     9    76    1
    22    10    77    1
    23    13    43    1
    24    14    79    1
    25    16    82    1
    26    17    86    1
    27    19    47    2
    28    50    20    1
    29    20   101    1
    30    21    52    2
    31    22    56    2
    32    23    58    1
    33    23   102    1
    34    24    58    2
    35    35    25    1
    36    25    37   ar
    37    25    38   ar
    38    26    38   ar
    39    26    39   ar
    40    27    37   ar
    41    27    46   ar
    42    28    42   ar
    43    28    46   ar
    44    29    42    1
    45    29    80    1
    46    29    81    1
    47    30    47   am
    48    30    48    1
    49    30    83    1
    50    31    52   am
    51    31    55    1
    52    31    96    1
    53    32    33    1
    54    32    34    1
    55    32    59    1
    56    33    35    1
    57    33    60    1
    58    35    62    1
    59    36    63    1
    60    36    64    1
    61    37    39   ar
    62    38    66    1
    63    39    42   ar
    64    40    43    1
    65    40    44    1
    66    40    45    1
    67    41    47    1
    68    41    67    1
    69    43    68    1
    70    43    69    1
    71    44    70    1
    72    44    71    1
    73    44    72    1
    74    45    73    1
    75    45    74    1
    76    45    75    1
    77    46    78    1
    78    48    49    1
    79    48    84    1
    80    48    85    1
    81    49    52    1
    82    49    87    1
    83    49    88    1
    84    50    51    1
    85    50    53    1
    86    50    54    1
    87    51    56    1
    88    51    89    1
    89    51    90    1
    90    53    58    1
    91    53    91    1
    92    53    92    1
    93    54    93    1
    94    54    94    1
    95    54    95    1
    96    55    57    1
    97    55    97    1
    98    55    98    1
    99    57    99    1
   100    57   100    1
   101    34    61    1
   102    34    36    1
   103    41    40    1
   104    41    16    1
