@<TRIPOS>MOLECULE
lipoamide
 27 27 0 0 0
SMALL
GASTEIGER

@<TRIPOS>ATOM
      1 S           3.5448   -1.4558   -0.1422 S.3     1  UNL1       -0.0897
      2 S           5.0125   -0.1062    0.3372 S.3     1  UNL1       -0.0928
      3 O          -4.3287   -1.1158    0.4988 O.2     1  UNL1       -0.2760
      4 N          -5.1398    0.9450   -0.1155 N.am    1  UNL1       -0.3293
      5 C           2.2254   -0.2472   -0.4716 C.3     1  UNL1        0.0162
      6 C           0.8658   -0.8207   -0.1024 C.3     1  UNL1       -0.0403
      7 C           2.5687    0.9992    0.3478 C.3     1  UNL1       -0.0305
      8 C          -0.2576    0.1795   -0.3763 C.3     1  UNL1       -0.0516
      9 C          -1.6202   -0.3941    0.0242 C.3     1  UNL1       -0.0448
     10 C           4.0217    1.3902    0.1054 C.3     1  UNL1        0.0050
     11 C          -2.7604    0.5949   -0.2126 C.3     1  UNL1        0.0237
     12 C          -4.1322    0.0309    0.1075 C.2     1  UNL1        0.2105
     13 H           2.2508   -0.0093   -1.5419 H       1  UNL1        0.0421
     14 H           0.8434   -1.1039    0.9583 H       1  UNL1        0.0276
     15 H           0.6763   -1.7342   -0.6808 H       1  UNL1        0.0276
     16 H           2.3941    0.8302    1.4195 H       1  UNL1        0.0284
     17 H           1.9361    1.8454    0.0579 H       1  UNL1        0.0284
     18 H          -0.2668    0.4467   -1.4398 H       1  UNL1        0.0266
     19 H          -0.1030    1.1026    0.1918 H       1  UNL1        0.0266
     20 H          -1.6047   -0.6812    1.0831 H       1  UNL1        0.0270
     21 H          -1.8093   -1.3128   -0.5452 H       1  UNL1        0.0270
     22 H           4.1643    1.7602   -0.9152 H       1  UNL1        0.0385
     23 H           4.3452    2.1695    0.8012 H       1  UNL1        0.0385
     24 H          -2.7637    0.9097   -1.2633 H       1  UNL1        0.0358
     25 H          -2.6075    1.4899    0.4024 H       1  UNL1        0.0358
     26 H          -6.1109    0.7018    0.0497 H       1  UNL1        0.1449
     27 H          -4.9549    1.8866   -0.4463 H       1  UNL1        0.1449
@<TRIPOS>BOND
     1     1     2    1
     2     1     5    1
     3     2    10    1
     4     3    12    2
     5     4    12   am
     6     4    26    1
     7     4    27    1
     8     5     6    1
     9     5     7    1
    10     5    13    1
    11     6     8    1
    12     6    14    1
    13     6    15    1
    14     7    10    1
    15     7    16    1
    16     7    17    1
    17     8     9    1
    18     8    18    1
    19     8    19    1
    20     9    11    1
    21     9    20    1
    22     9    21    1
    23    10    22    1
    24    10    23    1
    25    11    12    1
    26    11    24    1
    27    11    25    1
