@<TRIPOS>MOLECULE
lipoic_acid
 26 26 0 0 0
SMALL
GASTEIGER

@<TRIPOS>ATOM
      1 S           2.5870   -1.3583   -0.3603 S.3     1  UNL1       -0.0897
      2 S           4.6243   -1.1509   -0.4692 S.3     1  UNL1       -0.0928
      3 O          -5.1580   -0.8719    0.3044 O.3     1  UNL1       -0.4806
      4 O          -4.3517    0.9806   -0.7326 O.2     1  UNL1       -0.2510
      5 C           2.2370    0.2515    0.4116 C.3     1  UNL1        0.0162
      6 C           0.8858    0.7830   -0.0416 C.3     1  UNL1       -0.0403
      7 C           3.3868    1.1796    0.0124 C.3     1  UNL1       -0.0305
      8 C          -0.2865   -0.1268    0.3328 C.3     1  UNL1       -0.0515
      9 C          -1.6758    0.3883   -0.0538 C.3     1  UNL1       -0.0430
     10 C           4.7201    0.4924    0.2825 C.3     1  UNL1        0.0050
     11 C          -2.8114   -0.5299    0.3968 C.3     1  UNL1        0.0448
     12 C          -4.1579   -0.0374   -0.0830 C.2     1  UNL1        0.3047
     13 H           2.2352    0.1111    1.4992 H       1  UNL1        0.0421
     14 H           0.7224    1.7676    0.4153 H       1  UNL1        0.0276
     15 H           0.8798    0.9477   -1.1272 H       1  UNL1        0.0276
     16 H           3.3313    2.1143    0.5832 H       1  UNL1        0.0284
     17 H           3.3157    1.4622   -1.0473 H       1  UNL1        0.0284
     18 H          -0.1690   -1.1117   -0.1321 H       1  UNL1        0.0266
     19 H          -0.2677   -0.2916    1.4180 H       1  UNL1        0.0266
     20 H          -1.8241    1.3858    0.3786 H       1  UNL1        0.0270
     21 H          -1.7153    0.5158   -1.1431 H       1  UNL1        0.0270
     22 H           5.5526    1.0570   -0.1470 H       1  UNL1        0.0385
     23 H           4.8960    0.3854    1.3578 H       1  UNL1        0.0385
     24 H          -2.8331   -0.5840    1.4905 H       1  UNL1        0.0377
     25 H          -2.6554   -1.5359   -0.0082 H       1  UNL1        0.0377
     26 H          -6.0354   -0.5569   -0.0010 H       1  UNL1        0.2951
@<TRIPOS>BOND
     1     1     2    1
     2     1     5    1
     3     2    10    1
     4     3    12    1
     5     3    26    1
     6     4    12    2
     7     5     6    1
     8     5     7    1
     9     5    13    1
    10     6     8    1
    11     6    14    1
    12     6    15    1
    13     7    10    1
    14     7    16    1
    15     7    17    1
    16     8     9    1
    17     8    18    1
    18     8    19    1
    19     9    11    1
    20     9    20    1
    21     9    21    1
    22    10    22    1
    23    10    23    1
    24    11    12    1
    25    11    24    1
    26    11    25    1
