@<TRIPOS>MOLECULE
malonyl_coa
 92 94 0 0 0
SMALL
GASTEIGER

@<TRIPOS>ATOM
      1 S          -1.4112   -6.9356   -9.4452 S.3     1  UNL1       -0.0861
      2 P         -19.3875    0.0950   -6.4611 P.3     1  UNL1        0.4728
      3 P         -13.9423   -1.1471   -4.8687 P.3     1  UNL1        0.4835
      4 P         -13.5211   -3.6565   -4.2370 P.3     1  UNL1        0.4834
      5 O         -17.5064   -2.1323   -3.3713 O.3     1  UNL1       -0.3456
      6 O         -19.0174    0.9414   -4.9985 O.3     1  UNL1       -0.2780
      7 O         -19.9059   -1.9666   -5.2214 O.3     1  UNL1       -0.3846
      8 O         -14.9654   -0.8243   -3.5904 O.3     1  UNL1       -0.2837
      9 O         -19.8877    1.5367   -7.0731 O.3     1  UNL1       -0.3026
     10 O         -17.8116    0.3796   -6.8848 O.3     1  UNL1       -0.3026
     11 O         -13.1645   -2.1796   -3.7190 O.3     1  UNL1       -0.1861
     12 O         -13.0346   -3.7691   -5.7542 O.3     1  UNL1       -0.2857
     13 O         -19.7189   -0.6626   -7.7702 O.2     1  UNL1       -0.2275
     14 O         -12.7309   -0.0875   -4.4698 O.3     1  UNL1       -0.3022
     15 O          -8.8365   -3.8374   -6.2583 O.3     1  UNL1       -0.3820
     16 O         -14.6385   -0.2230   -5.8977 O.2     1  UNL1       -0.2269
     17 O         -15.0989   -3.5566   -4.4954 O.3     1  UNL1       -0.3022
     18 O         -13.2265   -4.7638   -3.2888 O.2     1  UNL1       -0.2269
     19 O          -9.0391   -7.0252   -7.9503 O.2     1  UNL1       -0.2730
     20 O          -5.1249   -5.3885   -8.3302 O.2     1  UNL1       -0.2758
     21 O          -1.1383   -7.6080  -11.9867 O.2     1  UNL1       -0.2846
     22 O           0.0665   -9.7230  -12.6770 O.3     1  UNL1       -0.4803
     23 O           1.7762  -10.4076  -11.3754 O.2     1  UNL1       -0.2505
     24 N         -19.1032   -2.2426   -1.6415 N.ar    1  UNL1       -0.2855
     25 N         -18.6349   -2.0330    0.5214 N.ar    1  UNL1       -0.2306
     26 N         -21.5015   -2.6349   -1.5304 N.ar    1  UNL1       -0.2159
     27 N         -22.2746   -2.5948    0.7763 N.ar    1  UNL1       -0.2188
     28 N         -20.8441   -2.3448    2.6255 N.pl3   1  UNL1       -0.3413
     29 N          -7.4439   -5.9670   -6.6666 N.am    1  UNL1       -0.3127
     30 N          -4.6484   -7.1362   -9.7969 N.am    1  UNL1       -0.3145
     31 C         -18.7202   -0.1370   -4.0032 C.3     1  UNL1        0.1283
     32 C         -19.6889   -1.3673   -3.9267 C.3     1  UNL1        0.1294
     33 C         -17.3723   -0.9092   -4.1508 C.3     1  UNL1        0.1142
     34 C         -18.9073   -2.3684   -3.0639 C.3     1  UNL1        0.1667
     35 C         -16.1705   -0.0738   -3.6940 C.3     1  UNL1        0.0879
     36 C         -20.2912   -2.4041   -0.9980 C.ar    1  UNL1        0.1674
     37 C         -18.1369   -2.0338   -0.6980 C.ar    1  UNL1        0.1004
     38 C         -19.9768   -2.2721    0.3475 C.ar    1  UNL1        0.1473
     39 C         -10.9998   -4.9675   -6.4443 C.3     1  UNL1        0.0235
     40 C          -9.5679   -4.7741   -7.0694 C.3     1  UNL1        0.1380
     41 C         -11.6938   -3.5968   -6.1962 C.3     1  UNL1        0.0670
     42 C         -21.0280   -2.4044    1.2555 C.ar    1  UNL1        0.1472
     43 C         -11.9204   -5.7775   -7.3839 C.3     1  UNL1       -0.0549
     44 C         -10.9247   -5.6706   -5.0818 C.3     1  UNL1       -0.0549
     45 C         -22.4315   -2.6992   -0.5592 C.ar    1  UNL1        0.1205
     46 C          -8.6771   -6.0578   -7.2923 C.2     1  UNL1        0.2423
     47 C          -6.5344   -7.0907   -6.5795 C.3     1  UNL1        0.0199
     48 C          -6.0122   -7.5996   -7.9055 C.3     1  UNL1        0.0395
     49 C          -5.2377   -6.5578   -8.6778 C.2     1  UNL1        0.2145
     50 C          -3.8119   -6.4534  -10.7775 C.3     1  UNL1        0.0210
     51 C          -2.5403   -5.7775  -10.2633 C.3     1  UNL1        0.0165
     52 C          -0.7612   -7.7944  -10.8353 C.2     1  UNL1        0.2001
     53 C           0.3418   -8.7380  -10.4780 C.3     1  UNL1        0.1133
     54 C           0.7996   -9.6769  -11.5374 C.2     1  UNL1        0.3128
     55 H         -18.7514    0.3557   -3.0257 H       1  UNL1        0.0656
     56 H         -20.6769   -1.0894   -3.5560 H       1  UNL1        0.0666
     57 H         -17.1994   -1.2494   -5.1774 H       1  UNL1        0.0647
     58 H         -19.1322   -3.4100   -3.3326 H       1  UNL1        0.0866
     59 H         -16.3761    0.2793   -2.6782 H       1  UNL1        0.0592
     60 H         -16.0444    0.8149   -4.3178 H       1  UNL1        0.0592
     61 H         -19.2367   -2.6552   -5.4191 H       1  UNL1        0.2101
     62 H         -17.0942   -1.8939   -0.9521 H       1  UNL1        0.1030
     63 H          -9.6788   -4.3056   -8.0550 H       1  UNL1        0.0696
     64 H         -11.1606   -2.9430   -5.5002 H       1  UNL1        0.0572
     65 H         -11.7763   -3.0509   -7.1458 H       1  UNL1        0.0572
     66 H         -11.5548   -6.7942   -7.5343 H       1  UNL1        0.0237
     67 H         -12.9391   -5.8694   -6.9823 H       1  UNL1        0.0237
     68 H         -12.0112   -5.2864   -8.3597 H       1  UNL1        0.0237
     69 H         -10.2934   -6.5582   -5.1062 H       1  UNL1        0.0237
     70 H         -10.5436   -4.9923   -4.3079 H       1  UNL1        0.0237
     71 H         -11.9167   -6.0111   -4.7720 H       1  UNL1        0.0237
     72 H         -20.0541    1.3335   -8.0126 H       1  UNL1        0.2220
     73 H         -17.8534    1.2669   -7.2848 H       1  UNL1        0.2220
     74 H         -23.4529   -2.8471   -0.8939 H       1  UNL1        0.1048
     75 H         -11.8594   -0.5179   -4.3942 H       1  UNL1        0.2220
     76 H          -8.0111   -3.6626   -6.7535 H       1  UNL1        0.2105
     77 H         -19.9786   -1.8907    2.8938 H       1  UNL1        0.1438
     78 H         -21.6900   -2.0882    3.1116 H       1  UNL1        0.1438
     79 H          -7.4748   -5.3740   -5.8420 H       1  UNL1        0.1488
     80 H          -7.0593   -7.9022   -6.0621 H       1  UNL1        0.0467
     81 H          -5.7044   -6.7700   -5.9404 H       1  UNL1        0.0467
     82 H         -15.5220   -4.0511   -3.7806 H       1  UNL1        0.2220
     83 H          -6.8172   -7.9748   -8.5434 H       1  UNL1        0.0374
     84 H          -5.3305   -8.4364   -7.7038 H       1  UNL1        0.0374
     85 H          -5.0795   -7.9968  -10.1204 H       1  UNL1        0.1487
     86 H          -4.4347   -5.7038  -11.2746 H       1  UNL1        0.0470
     87 H          -3.5585   -7.2065  -11.5322 H       1  UNL1        0.0470
     88 H          -2.7791   -4.9863   -9.5482 H       1  UNL1        0.0396
     89 H          -2.0102   -5.2968  -11.0955 H       1  UNL1        0.0396
     90 H           1.2220   -8.1581  -10.1817 H       1  UNL1        0.0465
     91 H           0.0263   -9.3717   -9.6344 H       1  UNL1        0.0465
     92 H          -0.6405   -9.0298  -12.7224 H       1  UNL1        0.2951
@<TRIPOS>BOND
     1     1    51    1
     2     1    52    1
     3     2     6    1
     4     2     9    1
     5     2    10    1
     6     2    13    2
     7     3     8    1
     8     3    11    1
     9     3    14    1
    10     3    16    2
    11     4    11    1
    12     4    12    1
    13     4    17    1
    14     4    18    2
    15     5    33    1
    16     5    34    1
    17    31     6    1
    18    32     7    1
    19     7    61    1
    20     8    35    1
    21     9    72    1
    22    10    73    1
    23    12    41    1
    24    14    75    1
    25    15    76    1
    26    17    82    1
    27    19    46    2
    28    20    49    2
    29    21    52    2
    30    22    54    1
    31    22    92    1
    32    23    54    2
    33    34    24    1
    34    24    36   ar
    35    24    37   ar
    36    25    37   ar
    37    25    38   ar
    38    26    36   ar
    39    26    45   ar
    40    27    42   ar
    41    27    45   ar
    42    28    42    1
    43    28    77    1
    44    28    78    1
    45    29    46   am
    46    29    47    1
    47    29    79    1
    48    30    49   am
    49    30    50    1
    50    30    85    1
    51    31    32    1
    52    31    33    1
    53    31    55    1
    54    32    34    1
    55    32    56    1
    56    34    58    1
    57    35    59    1
    58    35    60    1
    59    36    38   ar
    60    37    62    1
    61    38    42   ar
    62    39    41    1
    63    39    43    1
    64    39    44    1
    65    40    46    1
    66    40    63    1
    67    41    64    1
    68    41    65    1
    69    43    66    1
    70    43    67    1
    71    43    68    1
    72    44    69    1
    73    44    70    1
    74    44    71    1
    75    45    74    1
    76    47    48    1
    77    47    80    1
    78    47    81    1
    79    48    49    1
    80    48    83    1
    81    48    84    1
    82    50    51    1
    83    50    86    1
    84    50    87    1
    85    51    88    1
    86    51    89    1
    87    52    53    1
    88    53    54    1
    89    53    90    1
    90    53    91    1
    91    33    57    1
    92    33    35    1
    93    40    39    1
    94    40    15    1
