@<TRIPOS>MOLECULE
menaquinone_4
 73 74 0 0 0
SMALL
GASTEIGER

@<TRIPOS>ATOM
      1 O          -3.2127    0.9693    1.5778 O.2     1  UNL1       -0.2869
      2 O           0.7110    3.0737   -1.3658 O.2     1  UNL1       -0.2870
      3 C          -5.0424   -2.1159   -1.5884 C.3     1  UNL1       -0.0286
      4 C          -4.0856   -3.1041   -0.9086 C.3     1  UNL1       -0.0308
      5 C          -2.5471    1.8375   -0.5328 C.2     1  UNL1        0.0102
      6 C          -0.3376   -1.9697   -0.2643 C.3     1  UNL1       -0.0286
      7 C          -3.9438    1.6110   -1.0076 C.3     1  UNL1       -0.0052
      8 C          -4.9882   -0.7328   -0.9649 C.2     1  UNL1       -0.0759
      9 C          -1.7827   -2.3688   -0.0533 C.2     1  UNL1       -0.0762
     10 C           0.6774   -2.9846    0.2765 C.3     1  UNL1       -0.0308
     11 C          -1.5518    2.3495   -1.2811 C.2     1  UNL1        0.0039
     12 C          -2.6574   -2.6508   -1.0388 C.2     1  UNL1       -0.0847
     13 C          -4.1529    0.1976   -1.4678 C.2     1  UNL1       -0.0806
     14 C          -0.9847    1.6793    1.4772 C.ar    1  UNL1        0.0327
     15 C          -2.3182    1.4590    0.8957 C.2     1  UNL1        0.1905
     16 C           0.0393    2.2230    0.7087 C.ar    1  UNL1        0.0327
     17 C           3.1201   -2.4137    0.7772 C.2     1  UNL1       -0.0762
     18 C           2.0986   -2.6370   -0.0720 C.2     1  UNL1       -0.0847
     19 C           4.5329   -2.0898    0.3488 C.3     1  UNL1       -0.0286
     20 C          -0.1948    2.5851   -0.6982 C.2     1  UNL1        0.1900
     21 C          -5.8919   -0.5279    0.2201 C.3     1  UNL1       -0.0438
     22 C           4.7437   -0.5866    0.1525 C.3     1  UNL1       -0.0308
     23 C          -2.2075   -2.4979    1.3878 C.3     1  UNL1       -0.0438
     24 C          -1.6680    2.7153   -2.7372 C.3     1  UNL1       -0.0357
     25 C          -0.7480    1.3381    2.8153 C.ar    1  UNL1       -0.0502
     26 C           1.3043    2.4283    1.2750 C.ar    1  UNL1       -0.0502
     27 C           2.9059   -2.5008    2.2652 C.3     1  UNL1       -0.0438
     28 C           6.1447   -0.2915   -0.3047 C.2     1  UNL1       -0.0850
     29 C           0.5124    1.5433    3.3770 C.ar    1  UNL1       -0.0610
     30 C           1.5375    2.0880    2.6076 C.ar    1  UNL1       -0.0610
     31 C           6.5287    0.2453   -1.4783 C.2     1  UNL1       -0.0796
     32 C           7.9517    0.5168   -1.8772 C.3     1  UNL1       -0.0440
     33 C           5.5072    0.6116   -2.5214 C.3     1  UNL1       -0.0440
     34 H          -4.8070   -2.0552   -2.6598 H       1  UNL1        0.0313
     35 H          -6.0676   -2.5031   -1.5369 H       1  UNL1        0.0313
     36 H          -4.1765   -4.0762   -1.4090 H       1  UNL1        0.0310
     37 H          -4.3920   -3.2726    0.1272 H       1  UNL1        0.0310
     38 H          -0.1672   -0.9949    0.2080 H       1  UNL1        0.0313
     39 H          -0.1570   -1.8164   -1.3368 H       1  UNL1        0.0313
     40 H          -4.1919    2.2764   -1.8425 H       1  UNL1        0.0357
     41 H          -4.6553    1.9129   -0.2332 H       1  UNL1        0.0357
     42 H           0.5315   -3.1231    1.3508 H       1  UNL1        0.0310
     43 H           0.4675   -3.9643   -0.1736 H       1  UNL1        0.0310
     44 H          -2.2973   -2.5720   -2.0641 H       1  UNL1        0.0572
     45 H          -3.5551   -0.0790   -2.3367 H       1  UNL1        0.0575
     46 H           2.3084   -2.5744   -1.1390 H       1  UNL1        0.0572
     47 H           5.2480   -2.4947    1.0764 H       1  UNL1        0.0313
     48 H           4.7448   -2.6101   -0.5954 H       1  UNL1        0.0313
     49 H          -5.6428   -1.2410    1.0126 H       1  UNL1        0.0274
     50 H          -5.8348    0.4710    0.6548 H       1  UNL1        0.0274
     51 H          -6.9340   -0.6927   -0.0733 H       1  UNL1        0.0274
     52 H           3.9834   -0.1788   -0.5196 H       1  UNL1        0.0310
     53 H           4.5927   -0.0708    1.1100 H       1  UNL1        0.0310
     54 H          -2.0403   -3.5185    1.7460 H       1  UNL1        0.0274
     55 H          -3.2527   -2.2246    1.5530 H       1  UNL1        0.0274
     56 H          -1.6240   -1.8186    2.0194 H       1  UNL1        0.0274
     57 H          -0.8376    2.2838   -3.3075 H       1  UNL1        0.0279
     58 H          -1.6399    3.8035   -2.8556 H       1  UNL1        0.0279
     59 H          -2.5815    2.3475   -3.2096 H       1  UNL1        0.0279
     60 H          -1.5308    0.9104    3.4361 H       1  UNL1        0.0625
     61 H           2.1213    2.8499    0.6954 H       1  UNL1        0.0625
     62 H           3.0769   -3.5236    2.6148 H       1  UNL1        0.0274
     63 H           3.6094   -1.8445    2.7905 H       1  UNL1        0.0274
     64 H           1.9117   -2.1710    2.5784 H       1  UNL1        0.0274
     65 H           6.9234   -0.5417    0.4146 H       1  UNL1        0.0572
     66 H           0.6944    1.2769    4.4140 H       1  UNL1        0.0618
     67 H           2.5193    2.2462    3.0444 H       1  UNL1        0.0618
     68 H           8.0872    1.5792   -2.1041 H       1  UNL1        0.0274
     69 H           8.6514    0.2539   -1.0771 H       1  UNL1        0.0274
     70 H           8.2203   -0.0689   -2.7622 H       1  UNL1        0.0274
     71 H           4.6116   -0.0142   -2.4949 H       1  UNL1        0.0274
     72 H           5.9270    0.4809   -3.5256 H       1  UNL1        0.0274
     73 H           5.2162    1.6613   -2.4139 H       1  UNL1        0.0274
@<TRIPOS>BOND
     1     1    15    2
     2     2    20    2
     3     3     4    1
     4     3     8    1
     5     3    34    1
     6     3    35    1
     7     4    12    1
     8     4    36    1
     9     4    37    1
    10     5     7    1
    11     5    11    2
    12     5    15    1
    13     6     9    1
    14     6    10    1
    15     6    38    1
    16     6    39    1
    17     7    13    1
    18     7    40    1
    19     7    41    1
    20     8    13    2
    21     8    21    1
    22     9    12    2
    23     9    23    1
    24    10    18    1
    25    10    42    1
    26    10    43    1
    27    11    20    1
    28    11    24    1
    29    12    44    1
    30    13    45    1
    31    14    15    1
    32    14    16   ar
    33    14    25   ar
    34    16    20    1
    35    16    26   ar
    36    17    18    2
    37    17    19    1
    38    17    27    1
    39    18    46    1
    40    19    22    1
    41    19    47    1
    42    19    48    1
    43    21    49    1
    44    21    50    1
    45    21    51    1
    46    22    28    1
    47    22    52    1
    48    22    53    1
    49    23    54    1
    50    23    55    1
    51    23    56    1
    52    24    57    1
    53    24    58    1
    54    24    59    1
    55    25    29   ar
    56    25    60    1
    57    26    30   ar
    58    26    61    1
    59    27    62    1
    60    27    63    1
    61    27    64    1
    62    28    31    2
    63    28    65    1
    64    29    30   ar
    65    29    66    1
    66    30    67    1
    67    31    32    1
    68    31    33    1
    69    32    68    1
    70    32    69    1
    71    32    70    1
    72    33    71    1
    73    33    72    1
    74    33    73    1
