@<TRIPOS>MOLECULE
methylcobalamin
 184 194 0 0 0
SMALL
GASTEIGER

@<TRIPOS>ATOM
      1 CO          3.5190   69.0670    3.6460 Co.oh   1  UNL1        0.0000
      2 N           4.0000   69.8410    5.3090 N.2     1  UNL1        0.0000
      3 N           2.1440   68.1420    4.5900 N.2     1  UNL1        0.0000
      4 N           3.3240   68.2100    1.9660 N.2     1  UNL1        0.0000
      5 N           4.8960   70.1600    2.9130 N.pl3   1  UNL1       -1.0000
      6 C           5.4150   70.2930    5.3380 C.3     1  UNL1        0.0000
      7 C           6.1210   68.9260    5.2820 C.3     1  UNL1        0.0000
      8 C           5.4140   71.1570    6.7330 C.3     1  UNL1        0.0000
      9 C           6.8090   71.1650    7.3990 C.3     1  UNL1        0.0000
     10 C           4.9360   72.6610    6.6180 C.3     1  UNL1        0.0000
     11 C           4.9690   73.5590    7.8520 C.2     1  UNL1        0.0000
     12 O           4.0110   73.5700    8.6340 O.2     1  UNL1        0.0000
     13 N           6.0150   74.3640    8.0430 N.am    1  UNL1        0.0000
     14 C           4.2930   70.4040    7.5570 C.3     1  UNL1        0.0000
     15 C           4.6130   69.2470    8.5590 C.3     1  UNL1        0.0000
     16 C           4.6810   69.6200   10.0480 C.3     1  UNL1        0.0000
     17 C           5.3950   68.5890   10.9020 C.2     1  UNL1        0.0000
     18 O           4.7640   67.6260   11.3520 O.2     1  UNL1        0.0000
     19 N           6.6910   68.7530   11.1440 N.am    1  UNL1        0.0000
     20 C           3.3490   69.9360    6.4460 C.2     1  UNL1        0.0000
     21 C           2.0120   69.5490    6.5640 C.2     1  UNL1        0.0000
     22 C           1.1500   70.2420    7.6190 C.3     1  UNL1        0.0000
     23 C           1.5140   68.4650    5.7920 C.2     1  UNL1        0.0000
     24 C           0.3340   67.4880    6.0330 C.3     1  UNL1        0.0000
     25 C           0.1510   67.0840    7.5170 C.3     1  UNL1        0.0000
     26 C          -0.9900   68.1440    5.4840 C.3     1  UNL1        0.0000
     27 C          -2.2950   67.3600    5.4970 C.2     1  UNL1        0.0000
     28 O          -3.0080   67.3880    6.5070 O.2     1  UNL1        0.0000
     29 N          -2.6620   66.6830    4.4110 N.am    1  UNL1        0.0000
     30 C           0.7510   66.2860    5.1100 C.3     1  UNL1        0.0000
     31 C           1.6180   65.1130    5.6570 C.3     1  UNL1        0.0000
     32 C           1.3860   63.7520    4.9840 C.3     1  UNL1        0.0000
     33 C           2.2430   62.6360    5.5500 C.2     1  UNL1        0.0000
     34 O           3.3670   62.4310    5.0800 O.2     1  UNL1        0.0000
     35 N           1.7540   61.9020    6.5440 N.am    1  UNL1        0.0000
     36 C           1.5640   67.0380    4.0710 C.2     1  UNL1        0.0000
     37 C           1.7160   66.5990    2.7730 C.2     1  UNL1        0.0000
     38 C           2.5080   67.1310    1.7600 C.2     1  UNL1        0.0000
     39 C           2.4990   66.6650    0.3020 C.3     1  UNL1        0.0000
     40 C           1.2850   67.2820   -0.4280 C.3     1  UNL1        0.0000
     41 C           2.4120   65.1240    0.1640 C.3     1  UNL1        0.0000
     42 C           3.8410   67.3050   -0.1590 C.3     1  UNL1        0.0000
     43 C           5.2010   66.5490   -0.1550 C.3     1  UNL1        0.0000
     44 C           5.6110   65.9120   -1.4920 C.3     1  UNL1        0.0000
     45 C           7.0360   65.3920   -1.5260 C.2     1  UNL1        0.0000
     46 O           7.2870   64.2730   -1.0650 O.2     1  UNL1        0.0000
     47 N           7.9810   66.1560   -2.0620 N.am    1  UNL1        0.0000
     48 C           3.9610   68.5100    0.7870 C.2     1  UNL1        0.0000
     49 C           4.7000   69.7040    0.6030 C.2     1  UNL1        0.0000
     50 C           4.8800   70.2300   -0.8230 C.3     1  UNL1        0.0000
     51 C           5.3580   70.3650    1.6960 C.2     1  UNL1        0.0000
     52 C           6.6640   71.2080    1.7770 C.3     1  UNL1        0.0000
     53 C           6.4350   72.5780    1.0710 C.3     1  UNL1        0.0000
     54 C           7.8870   70.5040    1.1040 C.3     1  UNL1        0.0000
     55 C           8.1510   69.0180    1.4210 C.3     1  UNL1        0.0000
     56 C           9.1650   68.2990    0.5530 C.2     1  UNL1        0.0000
     57 O           9.1340   68.4280   -0.6830 O.2     1  UNL1        0.0000
     58 N          10.0680   67.5130    1.1740 N.am    1  UNL1        0.0000
     59 C           6.8960   71.3670    3.3360 C.3     1  UNL1        0.0000
     60 C           7.5590   72.6590    3.8860 C.3     1  UNL1        0.0000
     61 C           9.0410   72.8160    3.5730 C.2     1  UNL1        0.0000
     62 O           9.4110   73.5040    2.6160 O.2     1  UNL1        0.0000
     63 N           9.9080   72.1990    4.3740 N.am    1  UNL1        0.0000
     64 C           5.5240   71.0020    3.9660 C.3     1  UNL1        0.0000
     65 C          10.9730   66.5590    0.5420 C.3     1  UNL1        0.0000
     66 C          10.4110   65.1410    0.5420 C.3     1  UNL1        0.0000
     67 C          11.3190   64.0990   -0.0740 C.3     1  UNL1        0.0000
     68 O          10.1420   64.7600    1.9210 O.3     1  UNL1        0.0000
     69 O           7.7760   65.7010    1.9610 O.2     1  UNL1        0.0000
     70 O           8.7810   64.5130    3.9830 O.co2   1  UNL1       -1.0000
     71 P           8.6680   64.6340    2.5000 P.3     1  UNL1        0.0000
     72 O           8.2180   63.2380    1.8370 O.3     1  UNL1        0.0000
     73 C           8.6600   61.9780    2.3380 C.3     1  UNL1        0.0000
     74 C           7.5820   61.2460    3.1610 C.3     1  UNL1        0.0000
     75 O           6.7090   62.1560    3.8050 O.3     1  UNL1        0.0000
     76 C           6.8770   60.3700    2.1300 C.3     1  UNL1        0.0000
     77 O           7.7980   60.1780    1.0540 O.3     1  UNL1        0.0000
     78 C           8.9500   61.0430    1.1560 C.3     1  UNL1        0.0000
     79 C          10.1980   60.1880    1.2470 C.3     1  UNL1        0.0000
     80 O          10.3550   59.3880    0.0870 O.3     1  UNL1        0.0000
     81 N           5.6230   60.9000    1.6030 N.ar    1  UNL1        0.0000
     82 C           4.3480   60.6130    2.0630 C.ar    1  UNL1        0.0000
     83 C           5.4670   61.7660    0.5710 C.ar    1  UNL1        0.0000
     84 N           4.2140   62.0630    0.3220 N.ar    1  UNL1        0.0000
     85 C           3.4710   61.3450    1.2560 C.ar    1  UNL1        0.0000
     86 C           2.0950   61.2730    1.4660 C.ar    1  UNL1        0.0000
     87 C           1.5950   60.4680    2.4740 C.ar    1  UNL1        0.0000
     88 C           0.0910   60.4150    2.6780 C.3     1  UNL1        0.0000
     89 C           2.4920   59.7240    3.3020 C.ar    1  UNL1        0.0000
     90 C           1.9890   58.8360    4.4190 C.3     1  UNL1        0.0000
     91 C           3.8630   59.8030    3.0850 C.ar    1  UNL1        0.0000
     92 C           2.2530   70.3840    3.1610 C.2     1  UNL1       -1.0000
     93 H           7.0890   69.0490    5.2690 H       1  UNL1        0.0000
     94 H           5.8520   68.4270    4.4870 H       1  UNL1        0.0000
     95 H           5.8910   68.3950    6.0590 H       1  UNL1        0.0000
     96 H           6.7430   71.5080    8.3080 H       1  UNL1        0.0000
     97 H           7.4170   71.7300    6.8900 H       1  UNL1        0.0000
     98 H           7.1750   70.2650    7.4350 H       1  UNL1        0.0000
     99 H           4.0090   72.6690    6.2700 H       1  UNL1        0.0000
    100 H           5.4890   73.1090    5.9320 H       1  UNL1        0.0000
    101 H           6.0410   74.8940    8.7550 H       1  UNL1        0.0000
    102 H           6.6910   74.3760    7.4660 H       1  UNL1        0.0000
    103 H           3.7880   71.0820    8.0540 H       1  UNL1        0.0000
    104 H           5.4670   68.8320    8.3080 H       1  UNL1        0.0000
    105 H           3.9230   68.5510    8.4600 H       1  UNL1        0.0000
    106 H           3.7790   69.7280   10.3820 H       1  UNL1        0.0000
    107 H           5.1350   70.4710   10.1410 H       1  UNL1        0.0000
    108 H           7.1170   68.1570   11.6460 H       1  UNL1        0.0000
    109 H           7.1480   69.4420   10.8160 H       1  UNL1        0.0000
    110 H           1.3780   71.1840    7.6580 H       1  UNL1        0.0000
    111 H           1.3100   69.8340    8.4850 H       1  UNL1        0.0000
    112 H           0.2130   70.1550    7.3900 H       1  UNL1        0.0000
    113 H          -0.3140   67.7900    8.0020 H       1  UNL1        0.0000
    114 H           1.0250   66.9410    7.9280 H       1  UNL1        0.0000
    115 H          -0.3760   66.2620    7.5770 H       1  UNL1        0.0000
    116 H          -0.8280   68.4250    4.5700 H       1  UNL1        0.0000
    117 H          -1.1450   68.9550    5.9910 H       1  UNL1        0.0000
    118 H          -3.4230   66.2260    4.4090 H       1  UNL1        0.0000
    119 H          -2.1500   66.6800    3.6820 H       1  UNL1        0.0000
    120 H          -0.0470   65.9040    4.6590 H       1  UNL1        0.0000
    121 H           1.4510   64.9980    6.6150 H       1  UNL1        0.0000
    122 H           2.5710   65.3470    5.5570 H       1  UNL1        0.0000
    123 H           1.5730   63.8350    4.0370 H       1  UNL1        0.0000
    124 H           0.4530   63.5090    5.0810 H       1  UNL1        0.0000
    125 H           2.2470   61.2450    6.8800 H       1  UNL1        0.0000
    126 H           0.9460   62.0520    6.8860 H       1  UNL1        0.0000
    127 H           1.1840   65.8540    2.5460 H       1  UNL1        0.0000
    128 H           1.3280   67.0710   -1.3830 H       1  UNL1        0.0000
    129 H           1.2880   68.2520   -0.3130 H       1  UNL1        0.0000
    130 H           0.4550   66.9210   -0.0550 H       1  UNL1        0.0000
    131 H           1.5160   64.8150    0.4080 H       1  UNL1        0.0000
    132 H           3.0610   64.7060    0.7590 H       1  UNL1        0.0000
    133 H           2.6040   64.8630   -0.7590 H       1  UNL1        0.0000
    134 H           3.7070   67.6590   -1.0770 H       1  UNL1        0.0000
    135 H           5.1760   65.8450    0.5320 H       1  UNL1        0.0000
    136 H           5.9110   67.1760    0.1040 H       1  UNL1        0.0000
    137 H           5.5040   66.5660   -2.1980 H       1  UNL1        0.0000
    138 H           5.0110   65.1760   -1.6800 H       1  UNL1        0.0000
    139 H           8.8140   65.8520   -2.1040 H       1  UNL1        0.0000
    140 H           7.8070   66.9690   -2.3780 H       1  UNL1        0.0000
    141 H           4.3040   69.7550   -1.4390 H       1  UNL1        0.0000
    142 H           5.8030   70.1170   -1.0960 H       1  UNL1        0.0000
    143 H           4.6480   71.1710   -0.8500 H       1  UNL1        0.0000
    144 H           6.2790   72.4460    0.1250 H       1  UNL1        0.0000
    145 H           7.2180   73.1480    1.1740 H       1  UNL1        0.0000
    146 H           5.6580   73.0220    1.4640 H       1  UNL1        0.0000
    147 H           8.6960   71.0030    1.3380 H       1  UNL1        0.0000
    148 H           7.7850   70.5770    0.1340 H       1  UNL1        0.0000
    149 H           7.3170   68.5370    1.3580 H       1  UNL1        0.0000
    150 H           8.4380   68.9530    2.3430 H       1  UNL1        0.0000
    151 H          10.1260   67.5930    2.0440 H       1  UNL1        0.0000
    152 H           7.5000   70.6330    3.6190 H       1  UNL1        0.0000
    153 H           7.4630   72.6690    4.8490 H       1  UNL1        0.0000
    154 H           7.0830   73.4400    3.5520 H       1  UNL1        0.0000
    155 H          10.7800   72.2720    4.2220 H       1  UNL1        0.0000
    156 H           9.6250   71.7110    5.0630 H       1  UNL1        0.0000
    157 H          11.8300   66.5670    1.0310 H       1  UNL1        0.0000
    158 H          11.1480   66.8410   -0.3870 H       1  UNL1        0.0000
    159 H           9.5620   65.1740    0.0290 H       1  UNL1        0.0000
    160 H          10.8870   63.2290   -0.0320 H       1  UNL1        0.0000
    161 H          12.1580   64.0660    0.4150 H       1  UNL1        0.0000
    162 H          11.4940   64.3270   -1.0030 H       1  UNL1        0.0000
    163 H           8.5411   65.3610    4.3882 H       1 UNL1 0.0000
    164 H           9.4610   62.0960    2.9030 H       1  UNL1        0.0000
    165 H           8.0340   60.6710    3.8300 H       1  UNL1        0.0000
    166 H           6.2150   61.7550    4.3550 H       1  UNL1        0.0000
    167 H           6.7020   59.4800    2.5380 H       1  UNL1        0.0000
    168 H           9.0080   61.5860    0.3300 H       1  UNL1        0.0000
    169 H          10.1400   59.6080    2.0340 H       1  UNL1        0.0000
    170 H          10.9830   60.7660    1.3490 H       1  UNL1        0.0000
    171 H          11.0580   58.9250    0.1650 H       1  UNL1        0.0000
    172 H           6.1960   62.1090    0.0900 H       1  UNL1        0.0000
    173 H           1.5060   61.7670    0.9180 H       1  UNL1        0.0000
    174 H          -0.2200   59.4960    2.6170 H       1  UNL1        0.0000
    175 H          -0.3590   60.9420    1.9960 H       1  UNL1        0.0000
    176 H          -0.1350   60.7770    3.5520 H       1  UNL1        0.0000
    177 H           2.7320   58.3660    4.8350 H       1  UNL1        0.0000
    178 H           1.3680   58.1770    4.0640 H       1  UNL1        0.0000
    179 H           1.5420   59.3760    5.0930 H       1  UNL1        0.0000
    180 H           4.4610   59.3040    3.6360 H       1  UNL1        0.0000
    181 H           1.3980   69.9940    3.0610 H       1  UNL1        0.0000
    182 H           2.5100   70.7830    2.3440 H       1  UNL1        0.0000
    183 H           2.2180   71.0460    3.8350 H       1  UNL1        0.0000
    184 H           5.0040   71.8350    4.0270 H       1  UNL1        0.0000
@<TRIPOS>UNITY_ATOM_ATTR
5 1
charge -1
70 1
charge -1
92 1
charge -1
@<TRIPOS>BOND
     1     1     2    1
     2     1     3    1
     3     1     4    1
     4     1     5    1
     5     1    92    1
     6     2     6    1
     7     2    20    2
     8     3    23    1
     9     3    36    2
    10     4    38    1
    11     4    48    2
    12     5    51    1
    13     5    64    1
    14     6     7    1
    15     6     8    1
    16     6    64    1
    17     7    93    1
    18     7    94    1
    19     7    95    1
    20     8     9    1
    21     8    10    1
    22     8    14    1
    23     9    96    1
    24     9    97    1
    25     9    98    1
    26    10    11    1
    27    10    99    1
    28    10   100    1
    29    11    12    2
    30    11    13   am
    31    13   101    1
    32    13   102    1
    33    14    15    1
    34    14    20    1
    35    14   103    1
    36    15    16    1
    37    15   104    1
    38    15   105    1
    39    16    17    1
    40    16   106    1
    41    16   107    1
    42    17    18    2
    43    17    19   am
    44    19   108    1
    45    19   109    1
    46    20    21    1
    47    21    22    1
    48    21    23    2
    49    22   110    1
    50    22   111    1
    51    22   112    1
    52    23    24    1
    53    24    25    1
    54    24    26    1
    55    24    30    1
    56    25   113    1
    57    25   114    1
    58    25   115    1
    59    26    27    1
    60    26   116    1
    61    26   117    1
    62    27    28    2
    63    27    29   am
    64    29   118    1
    65    29   119    1
    66    30    31    1
    67    30    36    1
    68    30   120    1
    69    31    32    1
    70    31   121    1
    71    31   122    1
    72    32    33    1
    73    32   123    1
    74    32   124    1
    75    33    34    2
    76    33    35   am
    77    35   125    1
    78    35   126    1
    79    36    37    1
    80    37    38    2
    81    37   127    1
    82    38    39    1
    83    39    40    1
    84    39    41    1
    85    39    42    1
    86    40   128    1
    87    40   129    1
    88    40   130    1
    89    41   131    1
    90    41   132    1
    91    41   133    1
    92    42    43    1
    93    42    48    1
    94    42   134    1
    95    43    44    1
    96    43   135    1
    97    43   136    1
    98    44    45    1
    99    44   137    1
   100    44   138    1
   101    45    46    2
   102    45    47   am
   103    47   139    1
   104    47   140    1
   105    48    49    1
   106    49    50    1
   107    49    51    2
   108    50   141    1
   109    50   142    1
   110    50   143    1
   111    51    52    1
   112    52    53    1
   113    52    54    1
   114    52    59    1
   115    53   144    1
   116    53   145    1
   117    53   146    1
   118    54    55    1
   119    54   147    1
   120    54   148    1
   121    55    56    1
   122    55   149    1
   123    55   150    1
   124    56    57    2
   125    56    58   am
   126    58    65    1
   127    58   151    1
   128    59    60    1
   129    59    64    1
   130    59   152    1
   131    60    61    1
   132    60   153    1
   133    60   154    1
   134    61    62    2
   135    61    63   am
   136    63   155    1
   137    63   156    1
   138    65    66    1
   139    65   157    1
   140    65   158    1
   141    66    67    1
   142    66    68    1
   143    66   159    1
   144    67   160    1
   145    67   161    1
   146    67   162    1
   147    68    71    1
   148    69    71    2
   149    70    71    1
   150    70   163    1
   151    71    72    1
   152    72    73    1
   153    73    74    1
   154    73    78    1
   155    73   164    1
   156    74    75    1
   157    74    76    1
   158    74   165    1
   159    75   166    1
   160    76    77    1
   161    76    81    1
   162    76   167    1
   163    77    78    1
   164    78    79    1
   165    78   168    1
   166    79    80    1
   167    79   169    1
   168    79   170    1
   169    80   171    1
   170    81    82   ar
   171    81    83   ar
   172    82    85   ar
   173    82    91   ar
   174    83    84   ar
   175    83   172    1
   176    84    85   ar
   177    85    86   ar
   178    86    87   ar
   179    86   173    1
   180    87    88    1
   181    87    89   ar
   182    88   174    1
   183    88   175    1
   184    88   176    1
   185    89    90    1
   186    89    91   ar
   187    90   177    1
   188    90   178    1
   189    90   179    1
   190    91   180    1
   191    92   181    1
   192    92   182    1
   193    92   183    1
   194   184    64    1
