@<TRIPOS>MOLECULE
methanofuran
 97 98 0 0 0
SMALL
GASTEIGER

@<TRIPOS>ATOM
      1 O          -3.9008    2.6630   -4.2431 O.3     1  UNL1       -0.4804
      2 O          -5.7107   -1.5498   -2.2832 O.3     1  UNL1       -0.4804
      3 O          -3.9105    0.4920   -4.7473 O.2     1  UNL1       -0.2507
      4 O          -6.1186    0.6467   -2.5810 O.2     1  UNL1       -0.2507
      5 O          -1.5898   -1.2092   -4.2542 O.2     1  UNL1       -0.2758
      6 O          -5.3344   -1.5352    2.7464 O.3     1  UNL1       -0.4806
      7 O          -4.0349    0.3006    2.5696 O.2     1  UNL1       -0.2510
      8 O           3.5813    0.1055   -4.2891 O.3     1  UNL1       -0.4793
      9 OXT         2.3613    1.8434   -3.6115 O.2     1  UNL1       -0.2489
     10 O           1.8471    4.4169   -5.6604 O.2     1  UNL1       -0.2758
     11 O          -0.6962    6.6339   -3.9848 O.3     1  UNL1       -0.4793
     12 OXT         0.0884    6.6785   -1.8750 O.2     1  UNL1       -0.2489
     13 O           3.6914    3.8927   -0.6659 O.2     1  UNL1       -0.2758
     14 O           4.8865   -1.3039    1.4346 O.3     1  UNL1       -0.4873
     15 O           4.7276   -5.1545    3.9673 O.2     1  UNL1       -0.4661
     16 N          -0.1069    0.2819   -4.9727 N.am    1  UNL1       -0.3023
     17 N           0.0040    3.8547   -4.4234 N.am    1  UNL1       -0.3023
     18 N           5.1432    4.4969   -2.3607 N.am    1  UNL1       -0.3150
     19 N           1.1886   -5.6336    3.3704 N.3     1  UNL1       -0.3237
     20 C          -3.2581    1.1921   -2.4820 C.3     1  UNL1        0.0696
     21 C          -3.9191   -0.0209   -1.7767 C.3     1  UNL1        0.0696
     22 C          -1.7277    1.3675   -2.3113 C.3     1  UNL1       -0.0311
     23 C          -3.9802    0.2237   -0.2496 C.3     1  UNL1       -0.0293
     24 C          -0.7275    0.2274   -2.5678 C.3     1  UNL1        0.0247
     25 C          -4.7464   -0.8398    0.5466 C.3     1  UNL1        0.0455
     26 C          -3.7013    1.3659   -3.9266 C.2     1  UNL1        0.3086
     27 C          -5.3405   -0.2483   -2.2880 C.2     1  UNL1        0.3086
     28 C          -0.7782   -0.3317   -3.9632 C.2     1  UNL1        0.2137
     29 CA          1.3500    0.3683   -5.2586 C.3     1  UNL1        0.1206
     30 C           1.4621    1.3085   -6.4925 C.3     1  UNL1       -0.0159
     31 C           0.5401    2.5649   -6.4658 C.3     1  UNL1        0.0262
     32 C          -4.6525   -0.6063    2.0377 C.2     1  UNL1        0.3047
     33 CA          0.2011    4.5539   -3.1059 C.3     1  UNL1        0.1206
     34 C           2.4414    0.8355   -4.2849 C.2     1  UNL1        0.3253
     35 C           0.8907    3.6953   -5.4700 C.2     1  UNL1        0.2137
     36 C           1.4204    4.1549   -2.2634 C.3     1  UNL1       -0.0159
     37 C           2.7774    4.6468   -2.7656 C.3     1  UNL1        0.0261
     38 C          -0.0924    6.0631   -2.9203 C.2     1  UNL1        0.3253
     39 C           3.8985    4.2830   -1.8059 C.2     1  UNL1        0.2131
     40 C           6.4490    4.2785   -1.7528 C.3     1  UNL1        0.0156
     41 C           6.5543    3.8622   -0.2837 C.3     1  UNL1       -0.0121
     42 C           6.2309    2.4366    0.1067 C.ar    1  UNL1       -0.0457
     43 C           5.6562    1.4980   -0.7571 C.ar    1  UNL1       -0.0551
     44 C           6.4338    2.0713    1.4448 C.ar    1  UNL1       -0.0551
     45 C           5.3872   -0.0798    1.0671 C.ar    1  UNL1        0.1210
     46 C           5.2245    0.2571   -0.2760 C.ar    1  UNL1       -0.0197
     47 C           6.0129    0.8295    1.9216 C.ar    1  UNL1       -0.0197
     48 C           5.1931   -1.6999    2.7728 C.3     1  UNL1        0.1175
     49 C           4.7403   -3.0820    3.0824 C.ar    1  UNL1        0.0276
     50 C           3.5037   -3.7068    2.7628 C.ar    1  UNL1       -0.0130
     51 C           3.5345   -4.9633    3.3349 C.ar    1  UNL1        0.1187
     52 C           5.4454   -4.0180    3.8104 C.ar    1  UNL1        0.0985
     53 C           2.5760   -6.0941    3.4098 C.3     1  UNL1        0.0521
     54 H          -3.6954    2.0774   -1.9895 H       1  UNL1        0.0421
     55 H          -3.3299   -0.9179   -1.9947 H       1  UNL1        0.0421
     56 H          -1.4416    2.1951   -2.9535 H       1  UNL1        0.0278
     57 H          -1.5503    1.7139   -1.2848 H       1  UNL1        0.0278
     58 H          -2.9566    0.2978    0.1367 H       1  UNL1        0.0278
     59 H          -4.4545    1.1955   -0.0522 H       1  UNL1        0.0278
     60 H           0.2849    0.5996   -2.3800 H       1  UNL1        0.0358
     61 H          -0.8926   -0.5960   -1.8662 H       1  UNL1        0.0358
     62 H          -5.8099   -0.8122    0.2845 H       1  UNL1        0.0378
     63 H          -4.3398   -1.8321    0.3277 H       1  UNL1        0.0378
     64 HA          1.6402   -0.6531   -5.5412 H       1  UNL1        0.0614
     65 H          -0.5392   -0.1218   -5.8004 H       1  UNL1        0.1495
     66 H           2.5024    1.6015   -6.6813 H       1  UNL1        0.0293
     67 H           1.1573    0.7084   -7.3635 H       1  UNL1        0.0293
     68 H           0.5717    3.0122   -7.4684 H       1  UNL1        0.0359
     69 H          -0.5057    2.2651   -6.3365 H       1  UNL1        0.0359
     70 HA         -0.6472    4.1347   -2.5470 H       1  UNL1        0.0614
     71 H          -4.4499    2.6229   -5.0568 H       1  UNL1        0.2951
     72 H          -4.9895   -2.1769   -2.0857 H       1  UNL1        0.2951
     73 H           1.2810    4.5567   -1.2506 H       1  UNL1        0.0293
     74 H           1.4172    3.0751   -2.1027 H       1  UNL1        0.0293
     75 H          -0.8015    3.2413   -4.4558 H       1  UNL1        0.1495
     76 H           3.0318    4.2110   -3.7315 H       1  UNL1        0.0359
     77 H           2.7732    5.7367   -2.8730 H       1  UNL1        0.0359
     78 H          -5.8077   -2.1905    2.1998 H       1  UNL1        0.2951
     79 H           6.9875    3.5735   -2.3956 H       1  UNL1        0.0465
     80 H           6.9608    5.2432   -1.8594 H       1  UNL1        0.0465
     81 H           5.1540    4.8179   -3.3196 H       1  UNL1        0.1487
     82 H           3.6157   -0.6871   -4.8552 H       1  UNL1        0.2951
     83 H           7.6003    4.0317    0.0064 H       1  UNL1        0.0328
     84 H           5.9451    4.5372    0.3309 H       1  UNL1        0.0328
     85 H          -0.7482    6.0042   -4.7276 H       1  UNL1        0.2951
     86 H           5.4699    1.7360   -1.8008 H       1  UNL1        0.0621
     87 H           6.8837    2.7762    2.1410 H       1  UNL1        0.0621
     88 H           4.7279   -0.4312   -0.9540 H       1  UNL1        0.0654
     89 H           6.1620    0.6295    2.9766 H       1  UNL1        0.0654
     90 H           6.2811   -1.6616    2.9148 H       1  UNL1        0.0749
     91 H           4.7057   -1.0208    3.4847 H       1  UNL1        0.0749
     92 H           2.6775   -3.2864    2.2047 H       1  UNL1        0.0656
     93 H           6.4196   -4.0127    4.2791 H       1  UNL1        0.1033
     94 H           2.7566   -6.7818    2.5777 H       1  UNL1        0.0502
     95 H           2.7374   -6.6495    4.3411 H       1  UNL1        0.0502
     96 H           0.5842   -6.4186    3.6043 H       1  UNL1        0.1186
     97 H           1.0598   -4.9497    4.1159 H       1  UNL1        0.1186
@<TRIPOS>BOND
     1     1    26    1
     2     1    71    1
     3     2    27    1
     4     2    72    1
     5     3    26    2
     6     4    27    2
     7     5    28    2
     8     6    32    1
     9     6    78    1
    10     7    32    2
    11     8    34    1
    12     8    82    1
    13     9    34    2
    14    10    35    2
    15    11    38    1
    16    11    85    1
    17    12    38    2
    18    13    39    2
    19    14    45    1
    20    14    48    1
    21    15    51   ar
    22    15    52   ar
    23    16    28   am
    24    16    29    1
    25    16    65    1
    26    17    33    1
    27    17    35   am
    28    17    75    1
    29    18    39   am
    30    18    40    1
    31    18    81    1
    32    19    53    1
    33    19    96    1
    34    19    97    1
    35    20    21    1
    36    20    22    1
    37    20    26    1
    38    20    54    1
    39    21    23    1
    40    21    27    1
    41    21    55    1
    42    22    24    1
    43    22    56    1
    44    22    57    1
    45    23    25    1
    46    23    58    1
    47    23    59    1
    48    24    28    1
    49    24    60    1
    50    24    61    1
    51    25    32    1
    52    25    62    1
    53    25    63    1
    54    29    30    1
    55    29    34    1
    56    29    64    1
    57    30    31    1
    58    30    66    1
    59    30    67    1
    60    31    35    1
    61    31    68    1
    62    31    69    1
    63    33    36    1
    64    33    38    1
    65    33    70    1
    66    36    37    1
    67    36    73    1
    68    36    74    1
    69    37    39    1
    70    37    76    1
    71    37    77    1
    72    40    41    1
    73    40    79    1
    74    40    80    1
    75    41    42    1
    76    41    83    1
    77    41    84    1
    78    42    43   ar
    79    42    44   ar
    80    43    46   ar
    81    43    86    1
    82    44    47   ar
    83    44    87    1
    84    45    46   ar
    85    45    47   ar
    86    46    88    1
    87    47    89    1
    88    48    49    1
    89    48    90    1
    90    48    91    1
    91    49    50   ar
    92    49    52   ar
    93    50    51   ar
    94    50    92    1
    95    51    53    1
    96    52    93    1
    97    53    94    1
    98    53    95    1
