@<TRIPOS>MOLECULE
molybdopterin
 38 40 0 0 0
SMALL
GASTEIGER

@<TRIPOS>ATOM
      1 S           1.0887    3.4989    1.8187 S.3     1  UNL1       -0.1441
      2 S           3.7816    2.3772    0.3234 S.3     1  UNL1       -0.1435
      3 P           3.2167   -2.4151    0.4231 P.3     1  UNL1        0.4725
      4 O           0.7069    0.4132   -1.4926 O.3     1  UNL1       -0.3460
      5 O           2.4763   -1.0315    0.0185 O.3     1  UNL1       -0.2838
      6 O          -2.5863   -0.2502    2.6724 O.2     1  UNL1       -0.2657
      7 O           3.0618   -3.3146   -0.9117 O.3     1  UNL1       -0.3026
      8 O           4.7855   -2.0227    0.4273 O.3     1  UNL1       -0.3026
      9 O           2.7125   -3.0574    1.6823 O.2     1  UNL1       -0.2275
     10 N          -1.0045    1.1368    0.8485 N.pl3   1  UNL1       -0.3259
     11 N          -1.5834    0.8615   -1.7965 N.pl3   1  UNL1       -0.3006
     12 N          -3.4834   -0.5472   -1.2783 N.ar    1  UNL1       -0.1993
     13 N          -3.9073   -1.0743    0.9724 N.ar    1  UNL1       -0.2937
     14 N          -5.2854   -1.9294   -0.7037 N.pl3   1  UNL1       -0.3289
     15 C          -0.3268    2.0559   -0.0622 C.3     1  UNL1        0.0955
     16 C          -0.2840    1.4366   -1.4715 C.3     1  UNL1        0.1476
     17 C           2.0430    0.9056   -1.3106 C.3     1  UNL1        0.1160
     18 C           1.0544    2.3769    0.4679 C.2     1  UNL1        0.0183
     19 C           2.1596    1.8798   -0.1375 C.2     1  UNL1        0.0243
     20 C          -2.0613    0.3530    0.4349 C.ar    1  UNL1        0.1333
     21 C          -2.3997    0.2081   -0.8700 C.ar    1  UNL1        0.1506
     22 C           2.8908   -0.3606   -1.1551 C.3     1  UNL1        0.0900
     23 C          -2.8565   -0.3399    1.4790 C.ar    1  UNL1        0.2755
     24 C          -4.1993   -1.1603   -0.3788 C.ar    1  UNL1        0.1948
     25 H          -0.9291    2.9730   -0.1260 H       1  UNL1        0.0595
     26 H          -0.0329    2.1922   -2.2264 H       1  UNL1        0.0830
     27 H           2.3386    1.4198   -2.2341 H       1  UNL1        0.0676
     28 H          -0.8702    1.2415    1.8492 H       1  UNL1        0.1471
     29 H          -1.8137    0.7059   -2.7724 H       1  UNL1        0.1500
     30 H           3.9612   -0.1437   -1.1116 H       1  UNL1        0.0595
     31 H           2.7143   -1.0210   -2.0115 H       1  UNL1        0.0595
     32 H          -0.2324    3.6201    2.0153 H       1  UNL1        0.1069
     33 H           4.4360    1.9871   -0.7796 H       1  UNL1        0.1069
     34 H          -4.5003   -1.5764    1.6266 H       1  UNL1        0.1716
     35 H          -5.8324   -2.4004    0.0087 H       1  UNL1        0.1451
     36 H          -5.5739   -2.0498   -1.6685 H       1  UNL1        0.1451
     37 H           3.3558   -4.2502   -0.8903 H       1  UNL1        0.2220
     38 H           5.4412   -2.6918    0.7179 H       1  UNL1        0.2220
@<TRIPOS>BOND
     1     1    18    1
     2     1    32    1
     3     2    19    1
     4     2    33    1
     5     3     5    1
     6     3     7    1
     7     3     8    1
     8     3     9    2
     9     4    16    1
    10     4    17    1
    11     5    22    1
    12     6    23    2
    13     7    37    1
    14     8    38    1
    15    10    15    1
    16    10    20    1
    17    10    28    1
    18    11    16    1
    19    11    21    1
    20    11    29    1
    21    12    21   ar
    22    12    24   ar
    23    13    23   ar
    24    13    24   ar
    25    13    34    1
    26    14    24    1
    27    14    35    1
    28    14    36    1
    29    15    16    1
    30    15    18    1
    31    15    25    1
    32    16    26    1
    33    17    19    1
    34    17    22    1
    35    17    27    1
    36    18    19    2
    37    20    21   ar
    38    20    23   ar
    39    22    30    1
    40    22    31    1
