@<TRIPOS>MOLECULE
nad_plus
 71 75 0 0 0
SMALL
GASTEIGER

@<TRIPOS>ATOM
      1 P           4.1022    1.3461   -1.6570 P.3     1  UNL1        0.4804
      2 P           4.3117   -1.6039   -1.5256 P.3     1  UNL1        0.2222
      3 O          -0.7288    2.7430   -1.8928 O.3     1  UNL1       -0.3456
      4 O           1.0909   -3.1742    0.9241 O.3     1  UNL1       -0.3094
      5 O           0.0153    4.3536    0.5872 O.3     1  UNL1       -0.3864
      6 O          -1.3658    2.2485    1.6100 O.3     1  UNL1       -0.3847
      7 O          -1.1896   -4.4845   -0.6107 O.3     1  UNL1       -0.3862
      8 O          -2.3819   -2.3331    0.5436 O.3     1  UNL1       -0.3803
      9 O           2.8391    2.2929   -1.3008 O.3     1  UNL1       -0.2838
     10 O           3.1618   -2.5711   -0.8793 O.3     1  UNL1       -0.3245
     11 O           3.6062   -0.1496   -1.2923 O.3     1  UNL1       -0.2292
     12 O           4.1518    1.3345   -3.2741 O.3     1  UNL1       -0.3023
     13 O           5.3926    1.7469   -1.0027 O.2     1  UNL1       -0.2270
     14 O           5.5621   -1.6726   -0.6758 O.co2   1  UNL1       -0.4370
     15 O           4.3758   -1.8745   -3.0132 O.2     1  UNL1       -0.5170
     16 O           2.5108    2.1281    3.8276 O.2     1  UNL1       -0.2702
     17 N          -2.4582    1.2675   -1.2127 N.ar    1  UNL1       -0.2855
     18 N           0.0055   -1.6198    2.4410 N.ar    1  UNL1       -0.1731
     19 N          -3.0956   -0.6018   -2.2468 N.ar    1  UNL1       -0.2306
     20 N          -4.4842    1.7678    0.0305 N.ar    1  UNL1       -0.2159
     21 N          -6.2135    0.0961   -0.3832 N.ar    1  UNL1       -0.2188
     22 N          -5.8733   -1.7703   -1.8421 N.pl3   1  UNL1       -0.3413
     23 N           3.1769    1.0049    1.9425 N.am    1  UNL1       -0.3252
     24 C           0.4305    3.0553    0.1628 C.3     1  UNL1        0.1135
     25 C          -0.6997    2.0680    0.3771 C.3     1  UNL1        0.1285
     26 C           0.5768    3.0576   -1.3557 C.3     1  UNL1        0.1134
     27 C          -1.6026    2.3802   -0.8066 C.3     1  UNL1        0.1667
     28 C          -0.5469   -3.2240   -0.8013 C.3     1  UNL1        0.1184
     29 C          -0.9964   -2.2598    0.2782 C.3     1  UNL1        0.1727
     30 C           0.9401   -3.3797   -0.4993 C.3     1  UNL1        0.1176
     31 C          -0.1662   -2.7226    1.4619 C.3     1  UNL1        0.2949
     32 C           1.5664    2.0156   -1.8582 C.3     1  UNL1        0.0879
     33 C           1.8036   -2.3584   -1.2265 C.3     1  UNL1        0.0838
     34 C          -3.7428    1.0331   -0.8121 C.ar    1  UNL1        0.1674
     35 C          -2.1146    0.2593   -2.0739 C.ar    1  UNL1        0.1004
     36 C           1.0290   -0.7693    2.2840 C.ar    1  UNL1        0.1859
     37 C          -0.8695   -1.5106    3.4501 C.ar    1  UNL1        0.1738
     38 C          -4.1194   -0.1304   -1.4640 C.ar    1  UNL1        0.1473
     39 C           1.2130    0.2711    3.1835 C.ar    1  UNL1        0.1000
     40 C          -0.7347   -0.4895    4.3800 C.ar    1  UNL1        0.0029
     41 C          -5.4080   -0.5967   -1.2242 C.ar    1  UNL1        0.1472
     42 C           0.3193    0.4086    4.2413 C.ar    1  UNL1       -0.0383
     43 C          -5.7089    1.2187    0.1835 C.ar    1  UNL1        0.1205
     44 C           2.3194    1.1989    3.0222 C.2     1  UNL1        0.2472
     45 H           1.3351    2.8053    0.7195 H       1  UNL1        0.0647
     46 H          -0.3132    1.0453    0.3251 H       1  UNL1        0.0665
     47 H           0.8652    4.0487   -1.7242 H       1  UNL1        0.0647
     48 H          -2.2630    3.2334   -0.6083 H       1  UNL1        0.0866
     49 H          -0.7755   -2.8809   -1.8142 H       1  UNL1        0.0649
     50 H          -0.7416   -1.2332    0.0011 H       1  UNL1        0.0716
     51 H           1.3043   -4.3914   -0.7101 H       1  UNL1        0.0648
     52 H          -0.6227   -3.5667    1.9938 H       1  UNL1        0.1444
     53 H           1.6218    2.0498   -2.9515 H       1  UNL1        0.0592
     54 H           1.2502    1.0050   -1.5814 H       1  UNL1        0.0592
     55 H           1.6917   -2.4617   -2.3105 H       1  UNL1        0.0591
     56 H           1.5178   -1.3442   -0.9360 H       1  UNL1        0.0591
     57 H           0.7459    4.9675    0.3994 H       1  UNL1        0.2100
     58 H          -2.0937    1.6050    1.6474 H       1  UNL1        0.2101
     59 H          -0.8452   -5.0907   -1.2887 H       1  UNL1        0.2100
     60 H          -2.8462   -2.2707   -0.3077 H       1  UNL1        0.2103
     61 H          -1.1405    0.1943   -2.5394 H       1  UNL1        0.1030
     62 H           1.6554   -0.9475    1.4260 H       1  UNL1        0.1385
     63 H          -1.6708   -2.2376    3.5011 H       1  UNL1        0.1377
     64 H          -1.4393   -0.3923    5.1990 H       1  UNL1        0.0677
     65 H           0.4235    1.2089    4.9689 H       1  UNL1        0.0629
     66 H          -6.3807    1.7476    0.8510 H       1  UNL1        0.1048
     67 H           4.9202    0.9204   -3.7216 H       1  UNL1        0.2220
     68 H          -6.8134   -2.0893   -1.6512 H       1  UNL1        0.1438
     69 H          -5.2736   -2.2899   -2.4685 H       1  UNL1        0.1438
     70 H           3.9608    1.6359    1.8088 H       1  UNL1        0.1453
     71 H           3.0932    0.2764    1.2448 H       1  UNL1        0.1453
@<TRIPOS>UNITY_ATOM_ATTR
14 1
charge -1
18 1
charge 1
@<TRIPOS>BOND
     1     1     9    1
     2     1    11    1
     3     1    12    1
     4     1    13    2
     5     2    10    1
     6     2    11    1
     7     2    14    1
     8     2    15    2
     9     3    26    1
    10     3    27    1
    11     4    30    1
    12     4    31    1
    13     5    24    1
    14     5    57    1
    15     6    25    1
    16     6    58    1
    17     7    28    1
    18     7    59    1
    19     8    29    1
    20     8    60    1
    21     9    32    1
    22    10    33    1
    23    12    67    1
    24    16    44    2
    25    17    27    1
    26    17    34   ar
    27    17    35   ar
    28    18    31    1
    29    18    36   ar
    30    18    37   ar
    31    19    35   ar
    32    19    38   ar
    33    20    34   ar
    34    20    43   ar
    35    21    41   ar
    36    21    43   ar
    37    22    41    1
    38    22    68    1
    39    22    69    1
    40    23    44   am
    41    23    70    1
    42    23    71    1
    43    24    25    1
    44    24    26    1
    45    24    45    1
    46    25    27    1
    47    25    46    1
    48    26    32    1
    49    26    47    1
    50    27    48    1
    51    28    29    1
    52    28    30    1
    53    28    49    1
    54    29    31    1
    55    29    50    1
    56    30    33    1
    57    30    51    1
    58    31    52    1
    59    32    53    1
    60    32    54    1
    61    33    55    1
    62    33    56    1
    63    34    38   ar
    64    35    61    1
    65    36    39   ar
    66    36    62    1
    67    37    40   ar
    68    37    63    1
    69    38    41   ar
    70    39    42   ar
    71    39    44    1
    72    40    42   ar
    73    40    64    1
    74    42    65    1
    75    43    66    1
