@<TRIPOS>MOLECULE
nadh
 73 77 0 0 0
SMALL
GASTEIGER

@<TRIPOS>ATOM
      1 P          -3.8847   -1.8741   -1.3047 P.3     1  UNL1        0.4835
      2 P          -3.8612    0.8957   -2.2971 P.3     1  UNL1        0.4835
      3 O           0.9671   -3.1773   -0.9667 O.3     1  UNL1       -0.3456
      4 O          -1.1302    3.3825   -0.0677 O.3     1  UNL1       -0.3476
      5 O           0.1432   -4.0727    1.8293 O.3     1  UNL1       -0.3864
      6 O           1.4540   -1.7372    2.2906 O.3     1  UNL1       -0.3847
      7 O           1.3547    4.2436   -1.5009 O.3     1  UNL1       -0.3864
      8 O           2.3304    2.5946    0.4384 O.3     1  UNL1       -0.3849
      9 O          -2.6309   -2.6627   -0.6530 O.3     1  UNL1       -0.2837
     10 O          -2.8578    2.0861   -1.8575 O.3     1  UNL1       -0.2837
     11 O          -3.4190   -0.3264   -1.3358 O.3     1  UNL1       -0.1861
     12 O          -3.8615   -2.2996   -2.8654 O.3     1  UNL1       -0.3022
     13 O          -3.3086    0.4366   -3.7464 O.3     1  UNL1       -0.3022
     14 O          -5.1996   -2.1075   -0.6187 O.2     1  UNL1       -0.2269
     15 O          -5.3242    1.2274   -2.2525 O.2     1  UNL1       -0.2269
     16 O          -3.0743   -1.4138    2.7825 O.2     1  UNL1       -0.2707
     17 N           2.6479   -1.5325   -0.6515 N.ar    1  UNL1       -0.2855
     18 N          -0.4514    2.3011    1.9295 N.pl3   1  UNL1       -0.2846
     19 N           3.3028    0.0012   -2.1310 N.ar    1  UNL1       -0.2306
     20 N           4.6278   -1.6292    0.7526 N.ar    1  UNL1       -0.2159
     21 N           6.3506   -0.0918   -0.0375 N.ar    1  UNL1       -0.2188
     22 N           6.0464    1.3008   -1.9598 N.pl3   1  UNL1       -0.3413
     23 N          -4.2826    0.4718    2.2203 N.am    1  UNL1       -0.3256
     24 C          -0.2712   -2.9482    1.0536 C.3     1  UNL1        0.1135
     25 C           0.8365   -1.9133    1.0319 C.3     1  UNL1        0.1285
     26 C          -0.3552   -3.3653   -0.4114 C.3     1  UNL1        0.1134
     27 C           1.7911   -2.5133    0.0108 C.3     1  UNL1        0.1667
     28 C           0.7772    2.9423   -1.3989 C.3     1  UNL1        0.1133
     29 C           1.0110    2.3705   -0.0166 C.3     1  UNL1        0.1265
     30 C          -0.7365    3.0974   -1.4274 C.3     1  UNL1        0.1132
     31 C          -0.0265    3.1086    0.8144 C.3     1  UNL1        0.1574
     32 C          -1.3368   -2.5221   -1.2132 C.3     1  UNL1        0.0879
     33 C          -1.4632    1.8372   -1.8776 C.3     1  UNL1        0.0879
     34 C           3.9119   -1.1679   -0.2840 C.ar    1  UNL1        0.1674
     35 C          -1.5422    1.4261    1.8267 C.2     1  UNL1        0.0071
     36 C           2.3267   -0.8037   -1.7660 C.ar    1  UNL1        0.1004
     37 C           0.1584    2.4098    3.1857 C.2     1  UNL1       -0.0049
     38 C           4.2998   -0.2162   -1.2134 C.ar    1  UNL1        0.1473
     39 C          -2.0014    0.6828    2.8473 C.2     1  UNL1        0.0318
     40 C          -1.3664    0.7404    4.2140 C.3     1  UNL1       -0.0019
     41 C          -0.2140    1.7167    4.2749 C.2     1  UNL1       -0.0654
     42 C           5.5714    0.3280   -1.0633 C.ar    1  UNL1        0.1472
     43 C          -3.1476   -0.1957    2.6214 C.2     1  UNL1        0.2390
     44 C           5.8379   -1.0305    0.7944 C.ar    1  UNL1        0.1205
     45 H          -1.1997   -2.5747    1.4867 H       1  UNL1        0.0647
     46 H           0.4478   -0.9482    0.6890 H       1  UNL1        0.0665
     47 H          -0.6157   -4.4256   -0.5069 H       1  UNL1        0.0647
     48 H           2.4537   -3.2650    0.4570 H       1  UNL1        0.0866
     49 H           1.1905    2.3261   -2.2021 H       1  UNL1        0.0647
     50 H           0.8242    1.2913   -0.0191 H       1  UNL1        0.0663
     51 H          -1.0603    3.9507   -2.0339 H       1  UNL1        0.0647
     52 H           0.3556    4.0775    1.1610 H       1  UNL1        0.0840
     53 H          -1.0438   -1.4676   -1.2114 H       1  UNL1        0.0592
     54 H          -1.3452   -2.8525   -2.2575 H       1  UNL1        0.0592
     55 H          -1.1523    1.5883   -2.8965 H       1  UNL1        0.0592
     56 H          -1.2390    0.9885   -1.2273 H       1  UNL1        0.0592
     57 H          -0.5715   -4.7311    1.7902 H       1  UNL1        0.2100
     58 H           0.7649   -1.4521    2.9147 H       1  UNL1        0.2101
     59 H           1.1478    4.5846   -2.3878 H       1  UNL1        0.2100
     60 H           2.9350    2.2004   -0.2129 H       1  UNL1        0.2101
     61 H          -1.9992    1.3733    0.8486 H       1  UNL1        0.0788
     62 H           1.3716   -0.8899   -2.2659 H       1  UNL1        0.1030
     63 H           0.9843    3.1115    3.2187 H       1  UNL1        0.0781
     64 H          -0.9987   -0.2545    4.4900 H       1  UNL1        0.0358
     65 H          -2.1189    1.0386    4.9531 H       1  UNL1        0.0358
     66 H           0.3094    1.8495    5.2157 H       1  UNL1        0.0588
     67 H           6.4888   -1.3429    1.6041 H       1  UNL1        0.1048
     68 H          -4.6117   -2.0362   -3.4399 H       1  UNL1        0.2220
     69 H          -2.3966    0.0863   -3.8298 H       1  UNL1        0.2220
     70 H           6.9736    1.6816   -1.8293 H       1  UNL1        0.1438
     71 H           5.4662    1.6166   -2.7253 H       1  UNL1        0.1438
     72 H          -5.1412   -0.0342    2.0297 H       1  UNL1        0.1452
     73 H          -4.3180    1.4800    2.1049 H       1  UNL1        0.1452
@<TRIPOS>BOND
     1     1     9    1
     2     1    11    1
     3     1    12    1
     4     1    14    2
     5     2    10    1
     6     2    11    1
     7     2    13    1
     8     2    15    2
     9     3    26    1
    10     3    27    1
    11     4    30    1
    12     4    31    1
    13     5    24    1
    14     5    57    1
    15     6    25    1
    16     6    58    1
    17     7    28    1
    18     7    59    1
    19     8    29    1
    20     8    60    1
    21     9    32    1
    22    10    33    1
    23    12    68    1
    24    13    69    1
    25    16    43    2
    26    17    27    1
    27    17    34   ar
    28    17    36   ar
    29    18    31    1
    30    18    35    1
    31    18    37    1
    32    19    36   ar
    33    19    38   ar
    34    20    34   ar
    35    20    44   ar
    36    21    42   ar
    37    21    44   ar
    38    22    42    1
    39    22    70    1
    40    22    71    1
    41    23    43   am
    42    23    72    1
    43    23    73    1
    44    24    25    1
    45    24    26    1
    46    24    45    1
    47    25    27    1
    48    25    46    1
    49    26    32    1
    50    26    47    1
    51    27    48    1
    52    28    29    1
    53    28    30    1
    54    28    49    1
    55    29    31    1
    56    29    50    1
    57    30    33    1
    58    30    51    1
    59    31    52    1
    60    32    53    1
    61    32    54    1
    62    33    55    1
    63    33    56    1
    64    34    38   ar
    65    35    39    2
    66    35    61    1
    67    36    62    1
    68    37    41    2
    69    37    63    1
    70    38    42   ar
    71    39    40    1
    72    39    43    1
    73    40    41    1
    74    40    64    1
    75    40    65    1
    76    41    66    1
    77    44    67    1
