@<TRIPOS>MOLECULE
nadp_plus
 76 80 0 0 0
SMALL
GASTEIGER

@<TRIPOS>ATOM
      1 P           5.7995    1.8802   -1.1248 P.3     1  UNL1        0.4728
      2 P          -1.7668    2.7849   -1.0905 P.3     1  UNL1        0.4804
      3 P          -4.7152    2.7346   -0.8298 P.3     1  UNL1        0.2222
      4 O           1.3370    1.2879    0.9804 O.3     1  UNL1       -0.3456
      5 O          -2.7884   -0.9904   -1.0550 O.3     1  UNL1       -0.3094
      6 O           4.7679    1.1832   -0.0866 O.3     1  UNL1       -0.2762
      7 O           3.7894    2.9264    1.7544 O.3     1  UNL1       -0.3864
      8 O          -0.6488    3.0365    0.0523 O.3     1  UNL1       -0.2838
      9 O          -4.3668   -3.3375   -2.1829 O.3     1  UNL1       -0.3862
     10 O          -3.8322   -4.1230    0.3625 O.3     1  UNL1       -0.3803
     11 O          -4.6763    1.2994   -1.6136 O.3     1  UNL1       -0.3245
     12 O          -3.1739    2.7928   -0.2929 O.3     1  UNL1       -0.2292
     13 O           5.3551    1.2866   -2.5621 O.3     1  UNL1       -0.3026
     14 O           7.1929    1.1175   -0.8223 O.3     1  UNL1       -0.3026
     15 O           5.8652    3.3772   -1.0414 O.2     1  UNL1       -0.2275
     16 O          -1.8072    4.1707   -1.9243 O.3     1  UNL1       -0.3023
     17 O          -1.5401    1.5635   -1.9335 O.2     1  UNL1       -0.2270
     18 O          -4.9165    3.8498   -1.8329 O.co2   1  UNL1       -0.4370
     19 O          -5.6356    2.5968    0.3635 O.2     1  UNL1       -0.5170
     20 O          -0.7681    1.2885    4.3565 O.2     1  UNL1       -0.2702
     21 N           2.1694   -0.6527   -0.1022 N.ar    1  UNL1       -0.2855
     22 N          -1.7724   -1.8453    0.9778 N.ar    1  UNL1       -0.1731
     23 N           1.0364   -2.0053   -1.4647 N.ar    1  UNL1       -0.2306
     24 N           3.9229   -2.1678    0.6259 N.ar    1  UNL1       -0.2159
     25 N           3.6760   -4.3678   -0.4012 N.ar    1  UNL1       -0.2188
     26 N           1.9032   -4.8834   -1.9238 N.pl3   1  UNL1       -0.3413
     27 N          -2.2854    1.8735    2.7396 N.am    1  UNL1       -0.3252
     28 C           3.3990    1.5256   -0.1599 C.3     1  UNL1        0.1433
     29 C           3.0793    2.8429    0.5187 C.3     1  UNL1        0.1144
     30 C           2.5295    0.5594    0.6301 C.3     1  UNL1        0.1675
     31 C           1.5896    2.7024    0.8161 C.3     1  UNL1        0.1134
     32 C          -4.6960   -2.4094   -1.1495 C.3     1  UNL1        0.1184
     33 C          -3.8983   -2.7372    0.0966 C.3     1  UNL1        0.1727
     34 C          -4.1532   -1.0359   -1.5309 C.3     1  UNL1        0.1176
     35 C          -2.5385   -2.1607   -0.2544 C.3     1  UNL1        0.2949
     36 C           0.7081    3.2195   -0.3121 C.3     1  UNL1        0.0879
     37 C          -4.9251    0.1073   -0.8871 C.3     1  UNL1        0.0838
     38 C           2.8229   -1.8517   -0.0739 C.ar    1  UNL1        0.1674
     39 C           1.1034   -0.7949   -0.9507 C.ar    1  UNL1        0.1004
     40 C           2.1050   -2.6763   -0.9254 C.ar    1  UNL1        0.1473
     41 C          -1.9348   -0.6447    1.5505 C.ar    1  UNL1        0.1859
     42 C          -0.9435   -2.7720    1.4775 C.ar    1  UNL1        0.1738
     43 C          -1.2323   -0.3233    2.7032 C.ar    1  UNL1        0.1000
     44 C           2.5690   -3.9789   -1.0786 C.ar    1  UNL1        0.1472
     45 C          -0.2151   -2.5059    2.6281 C.ar    1  UNL1        0.0029
     46 C          -0.3643   -1.2669    3.2443 C.ar    1  UNL1       -0.0383
     47 C           4.2753   -3.4516    0.3971 C.ar    1  UNL1        0.1205
     48 C          -1.4013    0.9754    3.3321 C.2     1  UNL1        0.2472
     49 H           3.0790    1.5553   -1.2089 H       1  UNL1        0.0674
     50 H           3.3379    3.7213   -0.0786 H       1  UNL1        0.0648
     51 H           3.0108    0.2371    1.5616 H       1  UNL1        0.0867
     52 H           1.3056    3.1820    1.7597 H       1  UNL1        0.0647
     53 H          -5.7779   -2.4524   -0.9958 H       1  UNL1        0.0649
     54 H          -4.3285   -2.2296    0.9681 H       1  UNL1        0.0716
     55 H          -4.1141   -0.9023   -2.6181 H       1  UNL1        0.0648
     56 H          -1.9294   -2.8496   -0.8531 H       1  UNL1        0.1444
     57 H           0.9031    2.6763   -1.2426 H       1  UNL1        0.0592
     58 H           0.8796    4.2863   -0.4854 H       1  UNL1        0.0592
     59 H          -4.6438    0.2389    0.1608 H       1  UNL1        0.0591
     60 H          -6.0030   -0.0751   -0.9407 H       1  UNL1        0.0591
     61 H           3.5250    3.7573    2.1851 H       1  UNL1        0.2100
     62 H           0.4153    0.0096   -1.1598 H       1  UNL1        0.1030
     63 H          -4.8608   -3.0734   -2.9779 H       1  UNL1        0.2100
     64 H          -4.7444   -4.4441    0.4620 H       1  UNL1        0.2103
     65 H          -2.6305    0.0150    1.0627 H       1  UNL1        0.1385
     66 H          -0.8722   -3.7172    0.9534 H       1  UNL1        0.1377
     67 H           0.4595   -3.2495    3.0384 H       1  UNL1        0.0677
     68 H           0.2075   -1.0585    4.1446 H       1  UNL1        0.0629
     69 H           5.7933    1.6256   -3.3715 H       1  UNL1        0.2220
     70 H           8.0100    1.4275   -1.2679 H       1  UNL1        0.2220
     71 H           5.1584   -3.7972    0.9238 H       1  UNL1        0.1048
     72 H          -2.3280    4.2090   -2.7546 H       1  UNL1        0.2220
     73 H           1.0761   -4.5957   -2.4292 H       1  UNL1        0.1438
     74 H           2.2596   -5.8246   -2.0184 H       1  UNL1        0.1438
     75 H          -2.4164    2.7907    3.1546 H       1  UNL1        0.1453
     76 H          -2.8308    1.7021    1.9043 H       1  UNL1        0.1453
@<TRIPOS>UNITY_ATOM_ATTR
18 1
charge -1
22 1
charge 1
@<TRIPOS>BOND
     1     1     6    1
     2     1    13    1
     3     1    14    1
     4     1    15    2
     5     2     8    1
     6     2    12    1
     7     2    16    1
     8     2    17    2
     9     3    11    1
    10     3    12    1
    11     3    18    1
    12     3    19    2
    13     4    30    1
    14     4    31    1
    15     5    34    1
    16     5    35    1
    17     6    28    1
    18     7    29    1
    19     7    61    1
    20     8    36    1
    21     9    32    1
    22     9    63    1
    23    10    33    1
    24    10    64    1
    25    11    37    1
    26    13    69    1
    27    14    70    1
    28    16    72    1
    29    20    48    2
    30    21    30    1
    31    21    38   ar
    32    21    39   ar
    33    22    35    1
    34    22    41   ar
    35    22    42   ar
    36    23    39   ar
    37    23    40   ar
    38    24    38   ar
    39    24    47   ar
    40    25    44   ar
    41    25    47   ar
    42    26    44    1
    43    26    73    1
    44    26    74    1
    45    27    48   am
    46    27    75    1
    47    27    76    1
    48    28    29    1
    49    28    30    1
    50    28    49    1
    51    29    31    1
    52    29    50    1
    53    30    51    1
    54    31    36    1
    55    31    52    1
    56    32    33    1
    57    32    34    1
    58    32    53    1
    59    33    35    1
    60    33    54    1
    61    34    37    1
    62    34    55    1
    63    35    56    1
    64    36    57    1
    65    36    58    1
    66    37    59    1
    67    37    60    1
    68    38    40   ar
    69    39    62    1
    70    40    44   ar
    71    41    43   ar
    72    41    65    1
    73    42    45   ar
    74    42    66    1
    75    43    46   ar
    76    43    48    1
    77    45    46   ar
    78    45    67    1
    79    46    68    1
    80    47    71    1
