@<TRIPOS>MOLECULE
nadph
 78 82 0 0 0
SMALL
GASTEIGER

@<TRIPOS>ATOM
      1 P          -1.7459   -2.0335    3.0769 P.3     1  UNL1        0.4728
      2 P          -4.3672    1.6961   -0.9531 P.3     1  UNL1        0.4835
      3 P          -2.4134    3.1459    0.7015 P.3     1  UNL1        0.4835
      4 O          -2.1086   -2.6474   -1.8412 O.3     1  UNL1       -0.3456
      5 O           1.4553    1.4497    1.5785 O.3     1  UNL1       -0.3476
      6 O          -1.5677   -2.8783    1.7049 O.3     1  UNL1       -0.2762
      7 O          -3.9350   -3.4068    0.4794 O.3     1  UNL1       -0.3864
      8 O           3.0054    2.7480    3.7880 O.3     1  UNL1       -0.3864
      9 O           4.5063    3.3321    1.5885 O.3     1  UNL1       -0.3849
     10 O          -4.4273    0.1176   -1.3043 O.3     1  UNL1       -0.2837
     11 O          -1.1317    2.5288    1.4722 O.3     1  UNL1       -0.2837
     12 O          -3.1179    1.8387    0.0630 O.3     1  UNL1       -0.1861
     13 O          -0.5806   -0.9155    2.9919 O.3     1  UNL1       -0.3026
     14 O          -1.2007   -3.0537    4.2070 O.3     1  UNL1       -0.3026
     15 O          -3.1287   -1.5020    3.3168 O.2     1  UNL1       -0.2275
     16 O          -3.8231    2.3905   -2.3093 O.3     1  UNL1       -0.3022
     17 O          -1.7739    3.8815   -0.5895 O.3     1  UNL1       -0.3022
     18 O          -5.6519    2.2740   -0.4340 O.2     1  UNL1       -0.2269
     19 O          -3.3230    4.0022    1.5331 O.2     1  UNL1       -0.2269
     20 O          -0.5839    2.0081   -2.6682 O.2     1  UNL1       -0.2707
     21 N           0.1050   -2.7998   -1.0005 N.ar    1  UNL1       -0.2855
     22 N           2.8334    1.4635   -0.3500 N.pl3   1  UNL1       -0.2846
     23 N           1.9233   -2.1596   -2.1203 N.ar    1  UNL1       -0.2306
     24 N           1.1410   -3.6521    1.0245 N.ar    1  UNL1       -0.2159
     25 N           3.5705   -3.4383    0.9345 N.ar    1  UNL1       -0.2188
     26 N           4.7085   -2.4950   -0.9475 N.pl3   1  UNL1       -0.3413
     27 N           0.5540    1.3570   -4.5690 N.am    1  UNL1       -0.3256
     28 C          -1.8354   -2.2361    0.4751 C.3     1  UNL1        0.1433
     29 C          -3.3149   -2.1629    0.1530 C.3     1  UNL1        0.1144
     30 C          -1.3074   -3.0332   -0.7079 C.3     1  UNL1        0.1675
     31 C          -3.3101   -1.9989   -1.3635 C.3     1  UNL1        0.1134
     32 C           2.3351    3.3508    2.6813 C.3     1  UNL1        0.1133
     33 C           3.1199    3.1264    1.4061 C.3     1  UNL1        0.1265
     34 C           1.0629    2.5588    2.4156 C.3     1  UNL1        0.1132
     35 C           2.7829    1.6815    1.0734 C.3     1  UNL1        0.1574
     36 C          -3.2760   -0.5417   -1.8027 C.3     1  UNL1        0.0879
     37 C          -0.0015    3.3585    1.6762 C.3     1  UNL1        0.0879
     38 C           1.1681   -3.0928   -0.1945 C.ar    1  UNL1        0.1674
     39 C           0.6094   -2.2418   -2.1453 C.ar    1  UNL1        0.1004
     40 C           1.7008    1.6368   -1.1583 C.2     1  UNL1        0.0071
     41 C           2.2858   -2.6878   -0.9067 C.ar    1  UNL1        0.1473
     42 C           3.9954    0.9968   -0.9777 C.2     1  UNL1       -0.0049
     43 C           1.6869    1.4079   -2.4821 C.2     1  UNL1        0.0318
     44 C           2.9160    0.9301   -3.2137 C.3     1  UNL1       -0.0019
     45 C           4.0979    0.7357   -2.2917 C.2     1  UNL1       -0.0654
     46 C           3.5223   -2.8779   -0.2980 C.ar    1  UNL1        0.1472
     47 C           2.3943   -3.7855    1.5107 C.ar    1  UNL1        0.1205
     48 C           0.4455    1.6239   -3.2230 C.2     1  UNL1        0.2390
     49 H          -1.4003   -1.2283    0.4774 H       1  UNL1        0.0674
     50 H          -3.8404   -1.3770    0.7011 H       1  UNL1        0.0648
     51 H          -1.4127   -4.1157   -0.5632 H       1  UNL1        0.0867
     52 H          -4.1709   -2.5018   -1.8190 H       1  UNL1        0.0647
     53 H           2.1777    4.4073    2.9162 H       1  UNL1        0.0647
     54 H           2.7696    3.8091    0.6223 H       1  UNL1        0.0663
     55 H           0.6373    2.1281    3.3290 H       1  UNL1        0.0647
     56 H           3.4510    0.9846    1.5958 H       1  UNL1        0.0840
     57 H          -3.2755   -0.4760   -2.8961 H       1  UNL1        0.0592
     58 H          -2.3593   -0.0504   -1.4589 H       1  UNL1        0.0592
     59 H          -0.3063    4.2258    2.2714 H       1  UNL1        0.0592
     60 H           0.3651    3.7137    0.7100 H       1  UNL1        0.0592
     61 H          -4.8712   -3.3398    0.2247 H       1  UNL1        0.2100
     62 H          -0.0118   -1.9079   -2.9652 H       1  UNL1        0.1030
     63 H           2.4485    2.8832    4.5737 H       1  UNL1        0.2100
     64 H           4.6272    4.2441    1.9035 H       1  UNL1        0.2101
     65 H           0.8196    1.9749   -0.6333 H       1  UNL1        0.0788
     66 H           4.8372    0.8606   -0.3081 H       1  UNL1        0.0781
     67 H           2.7198   -0.0281   -3.7077 H       1  UNL1        0.0358
     68 H           3.2083    1.6627   -3.9754 H       1  UNL1        0.0358
     69 H           5.0340    0.3803   -2.7093 H       1  UNL1        0.0588
     70 H          -0.5346   -0.2238    3.6857 H       1  UNL1        0.2220
     71 H          -1.2888   -2.8061    5.1520 H       1  UNL1        0.2220
     72 H           2.4702   -4.2299    2.4973 H       1  UNL1        0.1048
     73 H          -3.8192    3.3694   -2.3718 H       1  UNL1        0.2220
     74 H          -1.2050    3.3641   -1.1978 H       1  UNL1        0.2220
     75 H           5.5948   -2.6436   -0.4847 H       1  UNL1        0.1438
     76 H           4.6767   -2.0963   -1.8758 H       1  UNL1        0.1438
     77 H          -0.2548    1.4753   -5.1711 H       1  UNL1        0.1452
     78 H           1.3949    1.0430   -5.0394 H       1  UNL1        0.1452
@<TRIPOS>BOND
     1     1     6    1
     2     1    13    1
     3     1    14    1
     4     1    15    2
     5     2    10    1
     6     2    12    1
     7     2    16    1
     8     2    18    2
     9     3    11    1
    10     3    12    1
    11     3    17    1
    12     3    19    2
    13     4    30    1
    14     4    31    1
    15     5    34    1
    16     5    35    1
    17     6    28    1
    18     7    29    1
    19     7    61    1
    20     8    32    1
    21     8    63    1
    22     9    33    1
    23     9    64    1
    24    10    36    1
    25    11    37    1
    26    13    70    1
    27    14    71    1
    28    16    73    1
    29    17    74    1
    30    20    48    2
    31    21    30    1
    32    21    38   ar
    33    21    39   ar
    34    22    35    1
    35    22    40    1
    36    22    42    1
    37    23    39   ar
    38    23    41   ar
    39    24    38   ar
    40    24    47   ar
    41    25    46   ar
    42    25    47   ar
    43    26    46    1
    44    26    75    1
    45    26    76    1
    46    27    48   am
    47    27    77    1
    48    27    78    1
    49    28    29    1
    50    28    30    1
    51    28    49    1
    52    29    31    1
    53    29    50    1
    54    30    51    1
    55    31    36    1
    56    31    52    1
    57    32    33    1
    58    32    34    1
    59    32    53    1
    60    33    35    1
    61    33    54    1
    62    34    37    1
    63    34    55    1
    64    35    56    1
    65    36    57    1
    66    36    58    1
    67    37    59    1
    68    37    60    1
    69    38    41   ar
    70    39    62    1
    71    40    43    2
    72    40    65    1
    73    41    46   ar
    74    42    45    2
    75    42    66    1
    76    43    44    1
    77    43    48    1
    78    44    45    1
    79    44    67    1
    80    44    68    1
    81    45    69    1
    82    47    72    1
