@<TRIPOS>MOLECULE
phosphopantetheine
 45 44 0 0 0
SMALL
GASTEIGER

@<TRIPOS>ATOM
      1 S          -1.4490    1.9509   -1.8262 S.3     1  UNL1       -0.1767
      2 P           2.0647    2.5353    0.3746 P.3     1  UNL1        0.4724
      3 O           2.0103    1.0802   -0.3263 O.3     1  UNL1       -0.2861
      4 O           0.8296   -2.8594   -1.4947 O.3     1  UNL1       -0.3820
      5 O          -0.0464   -2.9382    1.0617 O.2     1  UNL1       -0.2730
      6 O           1.3528    2.2694    1.8020 O.3     1  UNL1       -0.3026
      7 O           3.6235    2.7175    0.7644 O.3     1  UNL1       -0.3026
      8 O           1.4701    3.6527   -0.4319 O.2     1  UNL1       -0.2275
      9 O          -4.0215    1.1486    1.1268 O.2     1  UNL1       -0.2758
     10 N          -0.5546   -0.6787    0.9192 N.am    1  UNL1       -0.3127
     11 N          -3.2966   -0.3035   -0.5344 N.am    1  UNL1       -0.3145
     12 C           2.4161   -1.3346   -0.4414 C.3     1  UNL1        0.0235
     13 C           0.9214   -1.6516   -0.7436 C.3     1  UNL1        0.1380
     14 C           2.5558   -0.0292    0.3795 C.3     1  UNL1        0.0670
     15 C           3.0866   -2.4993    0.3142 C.3     1  UNL1       -0.0549
     16 C           3.1641   -1.1610   -1.7849 C.3     1  UNL1       -0.0549
     17 C           0.0574   -1.8492    0.5001 C.2     1  UNL1        0.2423
     18 C          -1.4006   -0.6081    2.0882 C.3     1  UNL1        0.0199
     19 C          -2.8617   -0.8828    1.7595 C.3     1  UNL1        0.0395
     20 C          -3.4591    0.1140    0.7788 C.2     1  UNL1        0.2145
     21 C          -3.7845    0.4545   -1.6632 C.3     1  UNL1        0.0204
     22 C          -2.6784    0.8727   -2.6224 C.3     1  UNL1        0.0063
     23 H           0.4816   -0.8642   -1.3660 H       1  UNL1        0.0696
     24 H           2.0676   -0.1265    1.3540 H       1  UNL1        0.0572
     25 H           3.6169    0.1700    0.5690 H       1  UNL1        0.0572
     26 H           2.6043   -2.6859    1.2790 H       1  UNL1        0.0237
     27 H           3.0771   -3.4309   -0.2603 H       1  UNL1        0.0237
     28 H           4.1378   -2.2672    0.5233 H       1  UNL1        0.0237
     29 H           2.7011   -0.3847   -2.4041 H       1  UNL1        0.0237
     30 H           4.2090   -0.8749   -1.6186 H       1  UNL1        0.0237
     31 H           3.1679   -2.0890   -2.3674 H       1  UNL1        0.0237
     32 H          -0.4114    0.1757    0.3888 H       1  UNL1        0.1488
     33 H           1.0824   -3.6028   -0.9226 H       1  UNL1        0.2105
     34 H          -1.0439   -1.3251    2.8350 H       1  UNL1        0.0467
     35 H          -1.2865    0.4006    2.4993 H       1  UNL1        0.0467
     36 H          -3.4587   -0.8365    2.6780 H       1  UNL1        0.0374
     37 H          -2.9784   -1.8990    1.3632 H       1  UNL1        0.0374
     38 H          -2.8400   -1.1908   -0.7248 H       1  UNL1        0.1487
     39 H          -4.3487    1.3288   -1.3200 H       1  UNL1        0.0470
     40 H          -4.4888   -0.1975   -2.1915 H       1  UNL1        0.0470
     41 H           1.1744    3.0317    2.3929 H       1  UNL1        0.2220
     42 H           3.9187    3.5673    1.1551 H       1  UNL1        0.2220
     43 H          -3.1054    1.4060   -3.4773 H       1  UNL1        0.0389
     44 H          -2.1527   -0.0091   -3.0039 H       1  UNL1        0.0389
     45 H          -0.6547    2.0927   -2.8974 H       1  UNL1        0.1017
@<TRIPOS>BOND
     1     1    22    1
     2     1    45    1
     3     2     3    1
     4     2     6    1
     5     2     7    1
     6     2     8    2
     7     3    14    1
     8     4    13    1
     9     4    33    1
    10     5    17    2
    11     6    41    1
    12     7    42    1
    13     9    20    2
    14    10    17   am
    15    10    18    1
    16    10    32    1
    17    11    20   am
    18    11    21    1
    19    11    38    1
    20    12    13    1
    21    12    14    1
    22    12    15    1
    23    12    16    1
    24    13    17    1
    25    13    23    1
    26    14    24    1
    27    14    25    1
    28    15    26    1
    29    15    27    1
    30    15    28    1
    31    16    29    1
    32    16    30    1
    33    16    31    1
    34    18    19    1
    35    18    34    1
    36    18    35    1
    37    19    20    1
    38    19    36    1
    39    19    37    1
    40    21    22    1
    41    21    39    1
    42    21    40    1
    43    22    43    1
    44    22    44    1
