@<TRIPOS>MOLECULE
plastoquinone_9
 135 135 0 0 0
SMALL
GASTEIGER

@<TRIPOS>ATOM
      1 O           7.6954  -22.2819   -4.3308 O.2     1  UNL1       -0.2873
      2 O          12.2311  -23.1242   -1.6293 O.2     1  UNL1       -0.2876
      3 C           9.4240  -15.6473   -0.3101 C.3     1  UNL1       -0.0286
      4 C           7.8713  -19.8133    2.3806 C.3     1  UNL1       -0.0286
      5 C           8.2875  -14.5357   -5.1525 C.3     1  UNL1       -0.0286
      6 C           8.2227  -16.6892   -0.3680 C.3     1  UNL1       -0.0308
      7 C           9.2703  -14.1117   -4.0370 C.3     1  UNL1       -0.0308
      8 C           8.6807  -18.9608    3.2658 C.3     1  UNL1       -0.0308
      9 C           7.7825  -20.2047    6.7552 C.3     1  UNL1       -0.0286
     10 C           9.6628  -14.7232   -1.5591 C.2     1  UNL1       -0.0762
     11 C           7.8537  -19.2717    1.0073 C.2     1  UNL1       -0.0762
     12 C           3.7446  -16.4462   -4.0987 C.3     1  UNL1       -0.0286
     13 C           4.4553  -15.3317   -4.8543 C.3     1  UNL1       -0.0308
     14 C           6.8085  -14.3760   -4.8462 C.2     1  UNL1       -0.0762
     15 C           8.7007  -21.4233    6.6200 C.3     1  UNL1       -0.0308
     16 C           7.7904  -19.3853    5.5076 C.2     1  UNL1       -0.0762
     17 C           7.9931  -17.8568    0.8029 C.2     1  UNL1       -0.0847
     18 C           9.0936  -14.9234   -2.7711 C.2     1  UNL1       -0.0847
     19 C           4.1239  -16.4920   -2.6465 C.2     1  UNL1       -0.0762
     20 C           8.6269  -19.7093    4.5149 C.2     1  UNL1       -0.0847
     21 C           9.9416  -23.3226    9.7581 C.3     1  UNL1       -0.0286
     22 C           5.9667  -15.4305   -4.9073 C.2     1  UNL1       -0.0847
     23 C           9.9271  -22.3686    8.5953 C.2     1  UNL1       -0.0762
     24 C           5.2363  -17.9035   -0.9283 C.3     1  UNL1       -0.0308
     25 C           6.2187  -19.0591   -1.1275 C.3     1  UNL1       -0.0286
     26 C           8.7919  -22.1863    7.8721 C.2     1  UNL1       -0.0847
     27 C           8.6050  -24.0394    9.9654 C.3     1  UNL1       -0.0308
     28 C           4.7383  -17.6105   -2.2786 C.2     1  UNL1       -0.0847
     29 C           7.7599  -19.0978   -1.8252 C.2     1  UNL1       -0.0759
     30 C          10.6229  -13.5610   -1.3798 C.3     1  UNL1       -0.0438
     31 C           7.7139  -20.7968    0.2409 C.3     1  UNL1       -0.0438
     32 C           6.3143  -12.9828   -4.5734 C.3     1  UNL1       -0.0438
     33 C           6.8441  -18.2202    5.4079 C.3     1  UNL1       -0.0438
     34 C           8.5996  -24.9559   11.1286 C.2     1  UNL1       -0.0847
     35 C           8.3911  -26.2819   11.0856 C.2     1  UNL1       -0.0762
     36 C           8.1893  -27.1117   12.3369 C.3     1  UNL1       -0.0286
     37 C           3.8160  -15.3812   -1.6983 C.3     1  UNL1       -0.0438
     38 C           9.1332  -19.9682   -3.7572 C.3     1  UNL1       -0.0055
     39 C          11.2162  -21.6744    8.2731 C.3     1  UNL1       -0.0438
     40 C           7.8247  -19.5567   -3.1012 C.2     1  UNL1       -0.0806
     41 C           9.6049  -21.3432   -3.3271 C.2     1  UNL1        0.0069
     42 C           8.2073  -26.3313   13.6628 C.3     1  UNL1       -0.0308
     43 C           9.3131  -19.0844   -1.2028 C.3     1  UNL1       -0.0438
     44 C           8.2992  -27.0485    9.7867 C.3     1  UNL1       -0.0438
     45 C           8.6999  -22.4685   -3.6442 C.2     1  UNL1        0.1858
     46 C           9.0155  -23.8255   -3.0876 C.2     1  UNL1        0.0030
     47 C          10.7538  -21.6056   -2.6542 C.2     1  UNL1       -0.0076
     48 C          10.1632  -24.0534   -2.4418 C.2     1  UNL1        0.0027
     49 C           7.9901  -27.2452   14.8290 C.2     1  UNL1       -0.0850
     50 C          11.1472  -22.9701   -2.2050 C.2     1  UNL1        0.1826
     51 C           7.9662  -24.8796   -3.3480 C.3     1  UNL1       -0.0357
     52 C           8.8212  -27.3968   15.8762 C.2     1  UNL1       -0.0796
     53 C          10.5455  -25.4188   -1.9238 C.3     1  UNL1       -0.0357
     54 C           8.5285  -28.4153   16.9381 C.3     1  UNL1       -0.0440
     55 C          10.0836  -26.5989   16.0549 C.3     1  UNL1       -0.0440
     56 H          10.3646  -16.1878   -0.1484 H       1  UNL1        0.0313
     57 H           9.2600  -14.9956    0.5556 H       1  UNL1        0.0313
     58 H           6.8366  -20.0044    2.7017 H       1  UNL1        0.0313
     59 H           8.3700  -20.7997    2.3557 H       1  UNL1        0.0313
     60 H           8.5071  -15.5761   -5.4252 H       1  UNL1        0.0313
     61 H           8.5036  -13.9471   -6.0556 H       1  UNL1        0.0313
     62 H           7.3156  -16.0864   -0.4485 H       1  UNL1        0.0310
     63 H           8.3395  -17.0987   -1.3565 H       1  UNL1        0.0310
     64 H          10.2864  -14.2614   -4.4234 H       1  UNL1        0.0310
     65 H           9.1623  -13.0407   -3.8387 H       1  UNL1        0.0310
     66 H           9.7371  -18.9136    2.9096 H       1  UNL1        0.0310
     67 H           8.3186  -17.9614    3.3942 H       1  UNL1        0.0310
     68 H           8.1295  -19.5605    7.5689 H       1  UNL1        0.0313
     69 H           6.7608  -20.5278    6.9803 H       1  UNL1        0.0313
     70 H           3.9886  -17.4036   -4.5859 H       1  UNL1        0.0313
     71 H           2.6599  -16.3462   -4.1663 H       1  UNL1        0.0313
     72 H           4.0981  -15.3782   -5.8818 H       1  UNL1        0.0310
     73 H           4.1260  -14.3800   -4.4442 H       1  UNL1        0.0310
     74 H           8.3134  -22.1069    5.8512 H       1  UNL1        0.0310
     75 H           9.7071  -21.1302    6.3087 H       1  UNL1        0.0310
     76 H           8.0129  -17.2326    1.6937 H       1  UNL1        0.0572
     77 H           8.4330  -15.7753   -2.9026 H       1  UNL1        0.0572
     78 H           9.2279  -20.6138    4.4796 H       1  UNL1        0.0572
     79 H          10.7277  -24.0668    9.5779 H       1  UNL1        0.0313
     80 H          10.2124  -22.7655   10.6631 H       1  UNL1        0.0313
     81 H           6.3712  -16.4254   -5.0928 H       1  UNL1        0.0572
     82 H           4.3838  -18.2546   -0.3174 H       1  UNL1        0.0310
     83 H           5.6170  -17.0555   -0.3649 H       1  UNL1        0.0310
     84 H           5.6613  -19.8367   -1.6786 H       1  UNL1        0.0313
     85 H           6.0875  -19.4826   -0.1287 H       1  UNL1        0.0313
     86 H           7.8531  -22.6709    8.1190 H       1  UNL1        0.0572
     87 H           7.8173  -23.2986   10.1627 H       1  UNL1        0.0310
     88 H           8.3143  -24.5694    9.0504 H       1  UNL1        0.0310
     89 H           4.8371  -18.4190   -2.9890 H       1  UNL1        0.0572
     90 H          11.5566  -13.7340   -1.9296 H       1  UNL1        0.0274
     91 H          10.1908  -12.6211   -1.7475 H       1  UNL1        0.0274
     92 H          10.8812  -13.3983   -0.3297 H       1  UNL1        0.0274
     93 H           7.0946  -20.9713   -0.6537 H       1  UNL1        0.0274
     94 H           8.6716  -21.2619    0.0214 H       1  UNL1        0.0274
     95 H           7.1832  -21.5005    0.9056 H       1  UNL1        0.0274
     96 H           5.7762  -12.5956   -5.4441 H       1  UNL1        0.0274
     97 H           5.6500  -12.9670   -3.7022 H       1  UNL1        0.0274
     98 H           7.1302  -12.2914   -4.3501 H       1  UNL1        0.0274
     99 H           7.4067  -17.2815    5.3906 H       1  UNL1        0.0274
    100 H           6.2388  -18.2764    4.4900 H       1  UNL1        0.0274
    101 H           6.1466  -18.1911    6.2441 H       1  UNL1        0.0274
    102 H           8.6814  -24.4300   12.0749 H       1  UNL1        0.0572
    103 H           7.2200  -27.6202   12.2438 H       1  UNL1        0.0313
    104 H           8.9614  -27.8904   12.3643 H       1  UNL1        0.0313
    105 H           2.9788  -15.6583   -1.0539 H       1  UNL1        0.0274
    106 H           4.6774  -15.1439   -1.0599 H       1  UNL1        0.0274
    107 H           3.5510  -14.4625   -2.2239 H       1  UNL1        0.0274
    108 H           9.9047  -19.2327   -3.5660 H       1  UNL1        0.0357
    109 H           9.0030  -19.9324   -4.8282 H       1  UNL1        0.0357
    110 H          11.7182  -22.1609    7.4303 H       1  UNL1        0.0274
    111 H          11.0571  -20.6177    8.0284 H       1  UNL1        0.0274
    112 H          11.8958  -21.6943    9.1308 H       1  UNL1        0.0274
    113 H           6.9052  -19.7515   -3.6390 H       1  UNL1        0.0575
    114 H           9.1612  -25.8001   13.7551 H       1  UNL1        0.0310
    115 H           7.4134  -25.5736   13.6663 H       1  UNL1        0.0310
    116 H           9.7219  -20.0842   -1.0895 H       1  UNL1        0.0274
    117 H           9.9867  -18.4841   -1.8196 H       1  UNL1        0.0274
    118 H           9.6096  -18.6691   -0.2372 H       1  UNL1        0.0274
    119 H           7.3172  -26.9095    9.3232 H       1  UNL1        0.0274
    120 H           9.0744  -26.7285    9.0801 H       1  UNL1        0.0274
    121 H           8.4494  -28.1212    9.9463 H       1  UNL1        0.0274
    122 H          11.4458  -20.8201   -2.3505 H       1  UNL1        0.0660
    123 H           7.0743  -27.8330   14.7868 H       1  UNL1        0.0572
    124 H           8.3720  -25.6607   -3.9970 H       1  UNL1        0.0279
    125 H           7.6477  -25.3261   -2.4042 H       1  UNL1        0.0279
    126 H           7.0655  -24.4985   -3.8395 H       1  UNL1        0.0279
    127 H           9.7928  -25.7827   -1.1980 H       1  UNL1        0.0279
    128 H          10.6117  -26.1215   -2.7570 H       1  UNL1        0.0279
    129 H          11.5094  -25.4220   -1.4216 H       1  UNL1        0.0279
    130 H           9.3671  -29.1138   17.0227 H       1  UNL1        0.0274
    131 H           8.3726  -27.9273   17.9044 H       1  UNL1        0.0274
    132 H           7.6339  -29.0034   16.7066 H       1  UNL1        0.0274
    133 H          10.7905  -26.8000   15.2434 H       1  UNL1        0.0274
    134 H           9.8650  -25.5257   16.0832 H       1  UNL1        0.0274
    135 H          10.5825  -26.8508   16.9963 H       1  UNL1        0.0274
@<TRIPOS>BOND
     1     1    45    2
     2     2    50    2
     3     3     6    1
     4     3    10    1
     5     3    56    1
     6     3    57    1
     7     4     8    1
     8     4    11    1
     9     4    58    1
    10     4    59    1
    11     5     7    1
    12     5    14    1
    13     5    60    1
    14     5    61    1
    15     6    17    1
    16     6    62    1
    17     6    63    1
    18     7    18    1
    19     7    64    1
    20     7    65    1
    21     8    20    1
    22     8    66    1
    23     8    67    1
    24     9    15    1
    25     9    16    1
    26     9    68    1
    27     9    69    1
    28    10    18    2
    29    10    30    1
    30    11    17    2
    31    11    31    1
    32    12    13    1
    33    12    19    1
    34    12    70    1
    35    12    71    1
    36    13    22    1
    37    13    72    1
    38    13    73    1
    39    14    22    2
    40    14    32    1
    41    15    26    1
    42    15    74    1
    43    15    75    1
    44    16    20    2
    45    16    33    1
    46    17    76    1
    47    18    77    1
    48    19    28    2
    49    19    37    1
    50    20    78    1
    51    21    23    1
    52    21    27    1
    53    21    79    1
    54    21    80    1
    55    22    81    1
    56    23    26    2
    57    23    39    1
    58    24    25    1
    59    24    28    1
    60    24    82    1
    61    24    83    1
    62    25    29    1
    63    25    84    1
    64    25    85    1
    65    26    86    1
    66    27    34    1
    67    27    87    1
    68    27    88    1
    69    28    89    1
    70    29    40    2
    71    29    43    1
    72    30    90    1
    73    30    91    1
    74    30    92    1
    75    31    93    1
    76    31    94    1
    77    31    95    1
    78    32    96    1
    79    32    97    1
    80    32    98    1
    81    33    99    1
    82    33   100    1
    83    33   101    1
    84    34    35    2
    85    34   102    1
    86    35    36    1
    87    35    44    1
    88    36    42    1
    89    36   103    1
    90    36   104    1
    91    37   105    1
    92    37   106    1
    93    37   107    1
    94    38    40    1
    95    38    41    1
    96    38   108    1
    97    38   109    1
    98    39   110    1
    99    39   111    1
   100    39   112    1
   101    40   113    1
   102    41    45    1
   103    41    47    2
   104    42    49    1
   105    42   114    1
   106    42   115    1
   107    43   116    1
   108    43   117    1
   109    43   118    1
   110    44   119    1
   111    44   120    1
   112    44   121    1
   113    45    46    1
   114    46    48    2
   115    46    51    1
   116    47    50    1
   117    47   122    1
   118    48    50    1
   119    48    53    1
   120    49    52    2
   121    49   123    1
   122    51   124    1
   123    51   125    1
   124    51   126    1
   125    52    54    1
   126    52    55    1
   127    53   127    1
   128    53   128    1
   129    53   129    1
   130    54   130    1
   131    54   131    1
   132    54   132    1
   133    55   133    1
   134    55   134    1
   135    55   135    1
