@<TRIPOS>MOLECULE
pqq
 30 32 0 0 0
SMALL
GASTEIGER

@<TRIPOS>ATOM
      1 O          -1.1454    3.7827    0.0177 O.2     1  UNL1       -0.2831
      2 O           1.5088    3.3613    0.0155 O.2     1  UNL1       -0.2815
      3 O          -0.1155   -3.0416    1.2255 O.3     1  UNL1       -0.4771
      4 O          -4.4606   -2.0316   -0.0245 O.3     1  UNL1       -0.4761
      5 O          -0.2322   -3.2047   -1.0293 O.2     1  UNL1       -0.2451
      6 OXT        -5.6718   -0.1192   -0.0099 O.2     1  UNL1       -0.2435
      7 O           5.1607    0.7175   -0.0076 O.3     1  UNL1       -0.4761
      8 OXT         5.1958   -1.5459   -0.0261 O.2     1  UNL1       -0.2434
      9 N          -2.0832   -0.6969   -0.0149 N.ar    1  UNL1       -0.3484
     10 N           2.6173    0.8792   -0.0047 N.ar    1  UNL1       -0.2361
     11 C          -1.0479    0.2014   -0.0087 C.ar    1  UNL1        0.0611
     12 C           0.3787   -0.0813   -0.0115 C.ar    1  UNL1        0.0423
     13 C          -1.5985    1.4692    0.0007 C.ar    1  UNL1        0.0517
     14 C           1.2712    0.9979   -0.0033 C.ar    1  UNL1        0.1251
     15 C           0.9239   -1.3629   -0.0220 C.ar    1  UNL1        0.0723
     16 C          -3.0050    1.3335    0.0001 C.ar    1  UNL1       -0.0184
     17 CA         -3.2774   -0.0181   -0.0097 C.ar    1  UNL1        0.1254
     18 C          -0.7390    2.6298    0.0088 C.2     1  UNL1        0.2365
     19 C           0.7636    2.3950    0.0081 C.2     1  UNL1        0.2517
     20 C           2.3078   -1.5209   -0.0239 C.ar    1  UNL1       -0.0146
     21 CA          3.1005   -0.3826   -0.0150 C.ar    1  UNL1        0.1490
     22 C           0.1525   -2.5988   -0.0340 C.2     1  UNL1        0.3376
     23 C          -4.5531   -0.6625   -0.0142 C.2     1  UNL1        0.3533
     24 C           4.5486   -0.5006   -0.0170 C.2     1  UNL1        0.3553
     25 H          -2.0110   -1.7035   -0.0218 H       1  UNL1        0.1661
     26 H          -3.7374    2.1293    0.0061 H       1  UNL1        0.0648
     27 H           2.7520   -2.5124   -0.0328 H       1  UNL1        0.0649
     28 H          -0.6372   -3.8724    1.2164 H       1  UNL1        0.2954
     29 H          -5.3462   -2.4537   -0.0275 H       1  UNL1        0.2955
     30 H           6.1382    0.6340   -0.0092 H       1  UNL1        0.2955
@<TRIPOS>BOND
     1     1    18    2
     2     2    19    2
     3     3    22    1
     4     3    28    1
     5     4    23    1
     6     4    29    1
     7     5    22    2
     8     6    23    2
     9     7    24    1
    10     7    30    1
    11     8    24    2
    12     9    11   ar
    13     9    17   ar
    14     9    25    1
    15    10    14   ar
    16    10    21   ar
    17    11    12    1
    18    11    13   ar
    19    12    14   ar
    20    12    15   ar
    21    13    16   ar
    22    13    18    1
    23    14    19    1
    24    15    20   ar
    25    15    22    1
    26    16    17   ar
    27    16    26    1
    28    17    23    1
    29    18    19    1
    30    20    21   ar
    31    20    27    1
    32    21    24    1
