@<TRIPOS>MOLECULE
pyridoxal_5_phosphate
 26 26 0 0 0
SMALL
GASTEIGER

@<TRIPOS>ATOM
      1 P          -3.5764    0.1493   -0.3127 P.3     1  UNL1        0.4727
      2 O          -1.9746    0.3328   -0.4260 O.3     1  UNL1       -0.2820
      3 O           3.2571   -1.3903   -0.4957 O.3     1  UNL1       -0.5043
      4 O          -4.0093    1.2277    0.8120 O.3     1  UNL1       -0.3026
      5 O          -3.7195   -1.2666    0.4551 O.3     1  UNL1       -0.3026
      6 O           1.2533   -2.9595    0.3602 O.2     1  UNL1       -0.2956
      7 O          -4.3210    0.2437   -1.6124 O.2     1  UNL1       -0.2275
      8 N           2.0755    1.9981    0.1545 N.ar    1  UNL1       -0.2562
      9 C           0.2391    0.4510    0.4354 C.ar    1  UNL1        0.0105
     10 C           1.0769   -0.6125    0.1184 C.ar    1  UNL1        0.0641
     11 C          -1.2007    0.2559    0.7655 C.3     1  UNL1        0.0863
     12 C           2.4134   -0.3722   -0.1807 C.ar    1  UNL1        0.1483
     13 C           2.8594    0.9392   -0.1490 C.ar    1  UNL1        0.0801
     14 C           0.7824    1.7257    0.4396 C.ar    1  UNL1        0.0341
     15 C           4.2852    1.2536   -0.4633 C.3     1  UNL1       -0.0188
     16 C           0.5591   -1.9759    0.0992 C.2     1  UNL1        0.1541
     17 H          -1.3812   -0.6885    1.2882 H       1  UNL1        0.0616
     18 H          -1.5281    1.0464    1.4514 H       1  UNL1        0.0616
     19 H           0.1804    2.5976    0.6767 H       1  UNL1        0.0833
     20 H           4.5352    0.9463   -1.4839 H       1  UNL1        0.0294
     21 H           4.4688    2.3315   -0.3928 H       1  UNL1        0.0294
     22 H           4.9575    0.7612    0.2467 H       1  UNL1        0.0294
     23 H          -0.5065   -2.1122   -0.1458 H       1  UNL1        0.1083
     24 H           4.1521   -1.0648   -0.6777 H       1  UNL1        0.2922
     25 H          -4.9619    1.3475    1.0128 H       1  UNL1        0.2220
     26 H          -4.6122   -1.6568    0.5689 H       1  UNL1        0.2220
@<TRIPOS>BOND
     1     1     2    1
     2     1     4    1
     3     1     5    1
     4     1     7    2
     5     2    11    1
     6     3    12    1
     7     3    24    1
     8     4    25    1
     9     5    26    1
    10     6    16    2
    11     8    13   ar
    12     8    14   ar
    13     9    10   ar
    14     9    11    1
    15     9    14   ar
    16    10    12   ar
    17    10    16    1
    18    11    17    1
    19    11    18    1
    20    12    13   ar
    21    13    15    1
    22    14    19    1
    23    15    20    1
    24    15    21    1
    25    15    22    1
    26    16    23    1
