@<TRIPOS>MOLECULE
pyridoxamine_5_phosphate
 29 29 0 0 0
SMALL
GASTEIGER

@<TRIPOS>ATOM
      1 P          -3.5356   -0.2490   -0.3330 P.3     1  UNL1        0.4727
      2 O          -1.9310   -0.4162   -0.4308 O.3     1  UNL1       -0.2820
      3 O           3.2577    1.3874   -0.7714 O.3     1  UNL1       -0.5047
      4 O          -3.7321    1.2401    0.2662 O.3     1  UNL1       -0.3026
      5 O          -3.9181   -1.2051    0.9137 O.3     1  UNL1       -0.3026
      6 O          -4.2834   -0.5336   -1.6027 O.2     1  UNL1       -0.2275
      7 N           2.1559   -1.9064    0.3432 N.ar    1  UNL1       -0.2562
      8 N           0.6535    2.8543    0.9526 N.3     1  UNL1       -0.3260
      9 C           1.1004    0.6533   -0.0408 C.ar    1  UNL1        0.0162
     10 C           0.2875   -0.3742    0.4250 C.ar    1  UNL1        0.0046
     11 C           2.4403    0.4026   -0.3147 C.ar    1  UNL1        0.1425
     12 C          -1.1541   -0.1631    0.7342 C.3     1  UNL1        0.0859
     13 C           0.5392    2.0236   -0.2458 C.3     1  UNL1        0.0225
     14 C           2.9150   -0.8827   -0.1080 C.ar    1  UNL1        0.0798
     15 C           0.8585   -1.6247    0.5986 C.ar    1  UNL1        0.0338
     16 C           4.3464   -1.2063   -0.3862 C.3     1  UNL1       -0.0188
     17 H          -1.4617   -0.8608    1.5222 H       1  UNL1        0.0616
     18 H          -1.3582    0.8372    1.1262 H       1  UNL1        0.0616
     19 H           1.0567    2.5259   -1.0726 H       1  UNL1        0.0473
     20 H          -0.5060    1.9871   -0.5712 H       1  UNL1        0.0473
     21 H           0.2767   -2.4686    0.9567 H       1  UNL1        0.0833
     22 H           5.0101   -0.6072    0.2453 H       1  UNL1        0.0294
     23 H           4.5541   -2.2603   -0.1707 H       1  UNL1        0.0294
     24 H           4.5856   -1.0357   -1.4407 H       1  UNL1        0.0294
     25 H           0.2622    3.7756    0.7598 H       1  UNL1        0.1185
     26 H           1.6381    3.0074    1.1688 H       1  UNL1        0.1185
     27 H           4.1589    1.0600   -0.9153 H       1  UNL1        0.2922
     28 H          -4.6405    1.5983    0.3588 H       1  UNL1        0.2220
     29 H          -4.8643   -1.3523    1.1261 H       1  UNL1        0.2220
@<TRIPOS>BOND
     1     1     2    1
     2     1     4    1
     3     1     5    1
     4     1     6    2
     5     2    12    1
     6     3    11    1
     7     3    27    1
     8     4    28    1
     9     5    29    1
    10     7    14   ar
    11     7    15   ar
    12     8    13    1
    13     8    25    1
    14     8    26    1
    15     9    10   ar
    16     9    11   ar
    17     9    13    1
    18    10    12    1
    19    10    15   ar
    20    11    14   ar
    21    12    17    1
    22    12    18    1
    23    13    19    1
    24    13    20    1
    25    14    16    1
    26    15    21    1
    27    16    22    1
    28    16    23    1
    29    16    24    1
