@<TRIPOS>MOLECULE
s_adenosylhomocysteine
 46 48 0 0 0
SMALL
GASTEIGER

@<TRIPOS>ATOM
      1 S1          3.0331   -1.3063    1.3432 S.3     1  <1>        -0.1580
      2 O1          0.0024   -1.7082    1.0386 O.3     1  <1>        -0.3471
      3 O2         -0.7451   -4.5613    0.2650 O.3     1  <1>        -0.3865
      4 O3         -1.9996   -3.0615   -1.6224 O.3     1  <1>        -0.3847
      5 O4          3.4564    2.6341    1.5238 O.3     1  <1>        -0.4795
      6 O5          5.2720    2.6636    0.1670 O.2     1  <1>        -0.2493
      7 N1         -1.5286   -0.3036   -0.1074 N.ar    1  <1>        -0.2855
      8 N2         -1.3505    1.7621   -0.9315 N.ar    1  <1>        -0.2306
      9 N3         -3.7154   -0.1451    0.9392 N.ar    1  <1>        -0.2159
     10 N4         -4.6850    2.0742    0.6383 N.ar    1  <1>        -0.2188
     11 N5         -3.5587    3.8178   -0.5527 N.pl3   1  <1>        -0.3413
     12 N6          3.0851    2.1423   -1.7426 N.3     1  <1>        -0.3184
     13 C1          0.0564   -3.5941   -0.4132 C.3     1  <1>         0.1121
     14 C2         -0.8387   -2.5299   -1.0171 C.3     1  <1>         0.1285
     15 C3          0.8512   -2.8022    0.6204 C.3     1  <1>         0.0986
     16 C4         -1.1713   -1.6858    0.2037 C.3     1  <1>         0.1666
     17 C5          2.1414   -2.2212    0.0590 C.3     1  <1>         0.0226
     18 C6         -2.6796    0.3457    0.2420 C.ar    1  <1>         0.1674
     19 C7         -0.7628    0.5901   -0.8105 C.ar    1  <1>         0.1004
     20 C8         -2.5495    1.6235   -0.2785 C.ar    1  <1>         0.1473
     21 C9          4.4539   -0.7794    0.3572 C.3     1  <1>        -0.0043
     22 C10         4.0657    0.0880   -0.8438 C.3     1  <1>        -0.0183
     23 C11        -3.6053    2.5025   -0.0591 C.ar    1  <1>         0.1472
     24 C12         3.3117    1.3828   -0.5088 C.3     1  <1>         0.1040
     25 C13        -4.6731    0.7959    1.0874 C.ar    1  <1>         0.1205
     26 C14         4.1343    2.2760    0.4027 C.2     1  <1>         0.3217
     27 H1          0.6751   -4.1236   -1.1433 H       1  <1>         0.0647
     28 H2         -0.2828   -1.9661   -1.7735 H       1  <1>         0.0665
     29 H3          1.0579   -3.4180    1.5043 H       1  <1>         0.0632
     30 H4         -1.9993   -2.1160    0.7796 H       1  <1>         0.0866
     31 H5          1.8928   -1.5375   -0.7551 H       1  <1>         0.0402
     32 H6          2.7826   -3.0207   -0.3252 H       1  <1>         0.0402
     33 H7         -1.2195   -5.0705   -0.4141 H       1  <1>         0.2100
     34 H8         -2.5244   -3.5089   -0.9375 H       1  <1>         0.2101
     35 H9          0.2103    0.3368   -1.2076 H       1  <1>         0.1030
     36 H10         4.9942   -1.6682    0.0137 H       1  <1>         0.0377
     37 H11         5.1370   -0.2328    1.0154 H       1  <1>         0.0377
     38 H12         3.5087   -0.4970   -1.5841 H       1  <1>         0.0293
     39 H13         5.0061    0.3499   -1.3512 H       1  <1>         0.0293
     40 H14         2.3439    1.1676   -0.0463 H       1  <1>         0.0574
     41 H15        -5.5532    0.4871    1.6414 H       1  <1>         0.1048
     42 H16        -4.3384    4.4377   -0.3801 H       1  <1>         0.1438
     43 H17        -2.7540    4.1398   -1.0733 H       1  <1>         0.1438
     44 H18         2.5417    1.5774   -2.3945 H       1  <1>         0.1190
     45 H19         2.5152    2.9625   -1.5375 H       1  <1>         0.1190
     46 H20         3.9899    3.2198    2.1022 H       1  <1>         0.2951
@<TRIPOS>BOND
     1     1    17    1
     2     1    21    1
     3     2    15    1
     4     2    16    1
     5     3    13    1
     6     3    33    1
     7     4    14    1
     8     4    34    1
     9     5    26    1
    10     5    46    1
    11     6    26    2
    12     7    16    1
    13     7    18   ar
    14     7    19   ar
    15     8    19   ar
    16     8    20   ar
    17     9    18   ar
    18     9    25   ar
    19    10    23   ar
    20    10    25   ar
    21    11    23    1
    22    11    42    1
    23    11    43    1
    24    12    24    1
    25    12    44    1
    26    12    45    1
    27    13    14    1
    28    13    15    1
    29    13    27    1
    30    14    16    1
    31    14    28    1
    32    15    17    1
    33    15    29    1
    34    16    30    1
    35    17    31    1
    36    17    32    1
    37    18    20   ar
    38    19    35    1
    39    20    23   ar
    40    21    22    1
    41    21    36    1
    42    21    37    1
    43    22    24    1
    44    22    38    1
    45    22    39    1
    46    24    26    1
    47    24    40    1
    48    25    41    1
