@<TRIPOS>MOLECULE
siroheme
 107 114 0 0 0
SMALL
GASTEIGER

@<TRIPOS>ATOM
      1 FE         -0.1520    0.0670    0.2680 Fe      1  UNL1        0.0000
      2 C           2.6760    1.8830    0.5990 C.2     1  UNL1        0.0000
      3 C           1.6730   -2.7700    0.4140 C.2     1  UNL1        0.0000
      4 C          -2.9520   -1.7780   -0.2350 C.2     1  UNL1        0.0000
      5 C          -2.0310    2.8700    0.5690 C.2     1  UNL1        0.0000
      6 N           1.8030   -0.3630    0.2730 N.2     1  UNL1        0.0000
      7 C           2.8510    0.5290    0.3840 C.2     1  UNL1        0.0000
      8 C           4.2450   -0.1210    0.2800 C.3     1  UNL1        0.0000
      9 C           5.0920    0.5920   -0.8050 C.3     1  UNL1        0.0000
     10 C           4.9710   -0.0340    1.6770 C.3     1  UNL1        0.0000
     11 C           6.3580   -0.6230    1.7730 C.2     1  UNL1        0.0000
     12 O           6.5390   -1.8120    1.9910 O.2     1  UNL1        0.0000
     13 O           7.3490    0.2320    1.6410 O.3     1  UNL1        0.0000
     14 C           3.8620   -1.6140   -0.0260 C.3     1  UNL1        0.0000
     15 C           4.2020   -2.2650   -1.4020 C.3     1  UNL1        0.0000
     16 C           5.5180   -3.0480   -1.4310 C.3     1  UNL1        0.0000
     17 C           5.9090   -3.5730   -2.7850 C.2     1  UNL1        0.0000
     18 O           5.4930   -4.6260   -3.2410 O.2     1  UNL1        0.0000
     19 O           6.7430   -2.7880   -3.4300 O.3     1  UNL1        0.0000
     20 C           2.3620   -1.6030    0.2540 C.2     1  UNL1        0.0000
     21 N          -0.5310   -1.8890    0.1150 N.2     1  UNL1        0.0000
     22 C           0.3210   -2.9450    0.3290 C.2     1  UNL1        0.0000
     23 C          -0.4030   -4.2900    0.5020 C.3     1  UNL1        0.0000
     24 C           0.4000   -5.5080   -0.0210 C.3     1  UNL1        0.0000
     25 C          -0.8090   -4.5320    2.0040 C.3     1  UNL1        0.0000
     26 C           0.3110   -4.5290    3.0130 C.2     1  UNL1        0.0000
     27 O           0.8750   -5.5610    3.3420 O.2     1  UNL1        0.0000
     28 O           0.6170   -3.3530    3.5120 O.3     1  UNL1        0.0000
     29 C          -1.6910   -3.9630   -0.3320 C.3     1  UNL1        0.0000
     30 C          -1.7810   -4.2940   -1.8540 C.3     1  UNL1        0.0000
     31 C          -2.8070   -5.3610   -2.2490 C.3     1  UNL1        0.0000
     32 C          -2.4090   -6.7800   -1.9440 C.2     1  UNL1        0.0000
     33 O          -2.6990   -7.3480   -0.9030 O.2     1  UNL1        0.0000
     34 O          -1.7190   -7.3480   -2.9070 O.3     1  UNL1        0.0000
     35 C          -1.7540   -2.4510   -0.1410 C.2     1  UNL1        0.0000
     36 N          -2.1110    0.4810    0.1980 N.pl3   1  UNL1       -1.0000
     37 C          -3.1430   -0.3850   -0.0620 C.2     1  UNL1        0.0000
     38 C          -4.3580    0.2830   -0.1230 C.2     1  UNL1        0.0000
     39 C          -5.7110   -0.3170   -0.3870 C.3     1  UNL1        0.0000
     40 C          -6.3630   -0.8090    0.8760 C.2     1  UNL1        0.0000
     41 O          -6.2800   -1.9580    1.2670 O.2     1  UNL1        0.0000
     42 O          -7.0270    0.1280    1.5090 O.3     1  UNL1        0.0000
     43 C          -4.0900    1.6000    0.1170 C.2     1  UNL1        0.0000
     44 C          -5.0990    2.7210    0.1460 C.3     1  UNL1        0.0000
     45 C          -5.2710    3.4320   -1.1940 C.3     1  UNL1        0.0000
     46 C          -6.1030    4.6810   -1.1090 C.2     1  UNL1        0.0000
     47 O          -7.3050    4.7100   -1.3210 O.2     1  UNL1        0.0000
     48 O          -5.4000    5.7410   -0.7810 O.3     1  UNL1        0.0000
     49 C          -2.7230    1.7050    0.3120 C.2     1  UNL1        0.0000
     50 N           0.2330    2.0130    0.5160 N.pl3   1  UNL1       -1.0000
     51 C          -0.6660    3.0370    0.6890 C.2     1  UNL1        0.0000
     52 C          -0.0200    4.2200    1.0030 C.2     1  UNL1        0.0000
     53 C          -0.6690    5.5560    1.2690 C.3     1  UNL1        0.0000
     54 C          -0.9040    6.3900    0.0120 C.3     1  UNL1        0.0000
     55 C          -1.6810    7.6520    0.2650 C.2     1  UNL1        0.0000
     56 O          -2.8930    7.7380    0.1420 O.2     1  UNL1        0.0000
     57 O          -0.9180    8.6560    0.6330 O.3     1  UNL1        0.0000
     58 C           1.3210    3.9500    1.0120 C.2     1  UNL1        0.0000
     59 C           2.4100    4.9490    1.2980 C.3     1  UNL1        0.0000
     60 C           2.7590    5.7670    0.0860 C.2     1  UNL1        0.0000
     61 O           3.1780    5.2750   -0.9460 O.2     1  UNL1        0.0000
     62 O           2.5710    7.0560    0.2490 O.3     1  UNL1        0.0000
     63 C           1.4560    2.6020    0.6980 C.2     1  UNL1        0.0000
     64 H           3.4580    2.3990    0.7010 H       1  UNL1        0.0000
     65 H           2.1950   -3.5180    0.6540 H       1  UNL1        0.0000
     66 H          -3.7130   -2.3010   -0.4320 H       1  UNL1        0.0000
     67 H          -2.5550    3.6520    0.6630 H       1  UNL1        0.0000
     68 H           5.9030    0.0800   -0.9870 H       1  UNL1        0.0000
     69 H           5.3450    1.4830   -0.4930 H       1  UNL1        0.0000
     70 H           4.5700    0.6820   -1.6250 H       1  UNL1        0.0000
     71 H           4.4160   -0.4750    2.3450 H       1  UNL1        0.0000
     72 H           5.0350    0.9040    1.9350 H       1  UNL1        0.0000
     73 H           8.1370   -0.1500    1.7020 H       1  UNL1        0.0000
     74 H           4.2280   -1.5780   -2.1000 H       1  UNL1        0.0000
     75 H           3.4820   -2.8870   -1.6470 H       1  UNL1        0.0000
     76 H           5.4450   -3.8090   -0.8150 H       1  UNL1        0.0000
     77 H           6.2410   -2.4710   -1.1000 H       1  UNL1        0.0000
     78 H           6.9610   -3.1110   -4.2160 H       1  UNL1        0.0000
     79 H          -0.1900   -6.2830   -0.1020 H       1  UNL1        0.0000
     80 H           1.1220   -5.7220    0.6000 H       1  UNL1        0.0000
     81 H           0.7910   -5.3030   -0.8900 H       1  UNL1        0.0000
     82 H          -1.2680   -5.3900    2.0720 H       1  UNL1        0.0000
     83 H          -1.4440   -3.8460    2.2780 H       1  UNL1        0.0000
     84 H           1.2730   -3.3930    4.0930 H       1  UNL1        0.0000
     85 H          -0.9040   -4.5740   -2.1840 H       1  UNL1        0.0000
     86 H          -2.0090   -3.4700   -2.3430 H       1  UNL1        0.0000
     87 H          -2.9760   -5.2890   -3.2120 H       1  UNL1        0.0000
     88 H          -3.6560   -5.1730   -1.7910 H       1  UNL1        0.0000
     89 H          -1.4970   -8.1750   -2.7120 H       1  UNL1        0.0000
     90 H          -5.6150   -1.0660   -1.0170 H       1  UNL1        0.0000
     91 H          -6.2900    0.3520   -0.8170 H       1  UNL1        0.0000
     92 H          -7.4010   -0.1750    2.2430 H       1  UNL1        0.0000
     93 H          -4.8350    3.3830    0.8220 H       1  UNL1        0.0000
     94 H          -5.9720    2.3740    0.4310 H       1  UNL1        0.0000
     95 H          -5.6960    2.8140   -1.8320 H       1  UNL1        0.0000
     96 H          -4.3820    3.6650   -1.5500 H       1  UNL1        0.0000
     97 H          -5.8950    6.4650   -0.7340 H       1  UNL1        0.0000
     98 H          -0.1200    6.0770    1.8930 H       1  UNL1        0.0000
     99 H          -1.5300    5.4190    1.7200 H       1  UNL1        0.0000
    100 H          -1.3950    5.8450   -0.6460 H       1  UNL1        0.0000
    101 H          -0.0340    6.6250   -0.3850 H       1  UNL1        0.0000
    102 H          -1.3810    9.3870    0.7780 H       1  UNL1        0.0000
    103 H           3.2130    4.4750    1.6100 H       1  UNL1        0.0000
    104 H           2.1240    5.5420    2.0290 H       1  UNL1        0.0000
    105 H           2.7810    7.5110   -0.4710 H       1  UNL1        0.0000
    106 H           4.2240   -2.2050    0.6860 H       1  UNL1        0.0000
    107 H          -2.4890   -4.3470    0.1200 H       1  UNL1        0.0000
@<TRIPOS>UNITY_ATOM_ATTR
36 1
charge -1
50 1
charge -1
@<TRIPOS>BOND
     1     1     6    1
     2     1    21    1
     3     1    36    1
     4     1    50    1
     5     2     7    2
     6     2    63    1
     7     2    64    1
     8     3    20    1
     9     3    22    2
    10     3    65    1
    11     4    35    1
    12     4    37    2
    13     4    66    1
    14     5    49    2
    15     5    51    1
    16     5    67    1
    17     6     7    1
    18     6    20    2
    19     7     8    1
    20     8     9    1
    21     8    10    1
    22     8    14    1
    23     9    68    1
    24     9    69    1
    25     9    70    1
    26    10    11    1
    27    10    71    1
    28    10    72    1
    29    11    12    2
    30    11    13    1
    31    13    73    1
    32    14    15    1
    33    14    20    1
    34    14   106    1
    35    15    16    1
    36    15    74    1
    37    15    75    1
    38    16    17    1
    39    16    76    1
    40    16    77    1
    41    17    18    2
    42    17    19    1
    43    19    78    1
    44    21    22    1
    45    21    35    2
    46    22    23    1
    47    23    24    1
    48    23    25    1
    49    23    29    1
    50    24    79    1
    51    24    80    1
    52    24    81    1
    53    25    26    1
    54    25    82    1
    55    25    83    1
    56    26    27    2
    57    26    28    1
    58    28    84    1
    59    29    30    1
    60    29    35    1
    61    29   107    1
    62    30    31    1
    63    30    85    1
    64    30    86    1
    65    31    32    1
    66    31    87    1
    67    31    88    1
    68    32    33    2
    69    32    34    1
    70    34    89    1
    71    36    37    1
    72    36    49    1
    73    37    38    1
    74    38    39    1
    75    38    43    2
    76    39    40    1
    77    39    90    1
    78    39    91    1
    79    40    41    2
    80    40    42    1
    81    42    92    1
    82    43    44    1
    83    43    49    1
    84    44    45    1
    85    44    93    1
    86    44    94    1
    87    45    46    1
    88    45    95    1
    89    45    96    1
    90    46    47    2
    91    46    48    1
    92    48    97    1
    93    50    51    1
    94    50    63    1
    95    51    52    2
    96    52    53    1
    97    52    58    1
    98    53    54    1
    99    53    98    1
   100    53    99    1
   101    54    55    1
   102    54   100    1
   103    54   101    1
   104    55    56    2
   105    55    57    1
   106    57   102    1
   107    58    59    1
   108    58    63    2
   109    59    60    1
   110    59   103    1
   111    59   104    1
   112    60    61    2
   113    60    62    1
   114    62   105    1
