@<TRIPOS>MOLECULE
succinyl_coa
 95 97 0 0 0
SMALL
GASTEIGER

@<TRIPOS>ATOM
      1 S           1.8337    5.2455    9.8049 S.3     1  UNL1       -0.0866
      2 P          -2.7301   -2.1515    5.6298 P.3     1  UNL1        0.4728
      3 P           2.0892   -6.3088    4.8716 P.3     1  UNL1        0.4835
      4 P           4.7675   -5.8301    5.6320 P.3     1  UNL1        0.4834
      5 O           1.7398   -3.0932    3.4449 O.3     1  UNL1       -0.3456
      6 O          -1.4727   -3.2854    5.2748 O.3     1  UNL1       -0.2780
      7 O           0.4752   -1.6171    5.8551 O.3     1  UNL1       -0.3846
      8 O           1.5982   -6.0235    3.3049 O.3     1  UNL1       -0.2837
      9 O          -3.5856   -2.8752    4.4402 O.3     1  UNL1       -0.3026
     10 O          -3.1796   -3.1209    6.8602 O.3     1  UNL1       -0.3026
     11 O           3.7271   -6.2563    4.3172 O.3     1  UNL1       -0.1861
     12 O           3.4880   -4.9108    6.3465 O.3     1  UNL1       -0.2857
     13 O          -3.8555   -1.1366    5.9476 O.2     1  UNL1       -0.2275
     14 O           2.2101   -7.9397    4.8686 O.3     1  UNL1       -0.3022
     15 O           2.5792   -2.4723    7.1233 O.3     1  UNL1       -0.3820
     16 O           0.6232   -6.3558    5.3678 O.2     1  UNL1       -0.2269
     17 O           5.3872   -4.3857    5.1838 O.3     1  UNL1       -0.3022
     18 O           5.9128   -6.6528    4.9925 O.2     1  UNL1       -0.2269
     19 O           1.3071   -1.6603   10.2680 O.2     1  UNL1       -0.2730
     20 O           1.0408    0.9463    6.7505 O.2     1  UNL1       -0.2758
     21 O           4.3059    4.4764    9.3368 O.2     1  UNL1       -0.2852
     22 O           5.4691    2.5451   10.6775 O.3     1  UNL1       -0.4806
     23 O           4.7704    1.2265   12.3337 O.2     1  UNL1       -0.2510
     24 N           1.4988   -1.0202    2.4182 N.ar    1  UNL1       -0.2855
     25 N           1.4264   -0.7009    0.2223 N.ar    1  UNL1       -0.2306
     26 N           1.2638    1.2666    3.2060 N.ar    1  UNL1       -0.2159
     27 N           0.9094    2.7894    1.3478 N.ar    1  UNL1       -0.2188
     28 N           0.7526    2.0485   -0.9010 N.pl3   1  UNL1       -0.3413
     29 N           0.1792   -1.7123    8.2738 N.am    1  UNL1       -0.3127
     30 N           0.9570    2.6930    8.2254 N.am    1  UNL1       -0.3145
     31 C          -0.5691   -2.9027    4.1790 C.3     1  UNL1        0.1283
     32 C           0.1934   -1.6079    4.4671 C.3     1  UNL1        0.1294
     33 C           0.6412   -3.8415    4.0001 C.3     1  UNL1        0.1142
     34 C           1.5118   -1.7014    3.6824 C.3     1  UNL1        0.1667
     35 C           0.4738   -5.1068    3.1480 C.3     1  UNL1        0.0879
     36 C           1.3568    0.3222    2.2543 C.ar    1  UNL1        0.1674
     37 C           1.6261   -1.5871    1.1756 C.ar    1  UNL1        0.1004
     38 C           1.2543    0.4911    0.8906 C.ar    1  UNL1        0.1473
     39 C           2.0146   -4.4979    8.4090 C.3     1  UNL1        0.0235
     40 C           2.3018   -2.9676    8.4490 C.3     1  UNL1        0.1380
     41 C           3.2045   -5.2689    7.7171 C.3     1  UNL1        0.0670
     42 C           0.9774    1.7833    0.4416 C.ar    1  UNL1        0.1472
     43 C           1.8412   -5.0576    9.8375 C.3     1  UNL1       -0.0549
     44 C           0.6859   -4.8068    7.7228 C.3     1  UNL1       -0.0549
     45 C           1.0615    2.4784    2.6539 C.ar    1  UNL1        0.1205
     46 C           1.2033   -2.0582    9.1149 C.2     1  UNL1        0.2423
     47 C          -0.7931   -0.6569    8.4469 C.3     1  UNL1        0.0199
     48 C          -0.2532    0.7189    8.8139 C.3     1  UNL1        0.0395
     49 C           0.6347    1.4253    7.8081 C.2     1  UNL1        0.2145
     50 C           1.9297    3.5394    7.5539 C.3     1  UNL1        0.0210
     51 C           1.8173    5.0072    7.9878 C.3     1  UNL1        0.0165
     52 C           3.4860    4.8109   10.1874 C.2     1  UNL1        0.1899
     53 C           3.8558    4.7892   11.6478 C.3     1  UNL1        0.0263
     54 C           3.7700    3.3922   12.2414 C.3     1  UNL1        0.0522
     55 C           4.7121    2.3073   11.7585 C.2     1  UNL1        0.3051
     56 H          -1.1330   -2.8149    3.2449 H       1  UNL1        0.0656
     57 H          -0.3976   -0.7111    4.2716 H       1  UNL1        0.0666
     58 H           1.0066   -4.0947    4.9804 H       1  UNL1        0.0647
     59 H           2.3712   -1.3136    4.2471 H       1  UNL1        0.0866
     60 H           0.4374   -4.8433    2.0863 H       1  UNL1        0.0592
     61 H          -0.4533   -5.6364    3.3908 H       1  UNL1        0.0592
     62 H           1.4175   -1.8683    5.9980 H       1  UNL1        0.2101
     63 H           1.8417   -2.6349    1.0292 H       1  UNL1        0.1030
     64 H           3.2231   -2.8099    9.0227 H       1  UNL1        0.0696
     65 H           4.1244   -5.1098    8.2914 H       1  UNL1        0.0572
     66 H           2.9947   -6.3460    7.7316 H       1  UNL1        0.0572
     67 H           1.1290   -4.4592   10.4161 H       1  UNL1        0.0237
     68 H           1.4358   -6.0785    9.8074 H       1  UNL1        0.0237
     69 H           2.7872   -5.0934   10.3818 H       1  UNL1        0.0237
     70 H          -0.1816   -4.4338    8.2748 H       1  UNL1        0.0237
     71 H           0.6425   -4.3481    6.7497 H       1  UNL1        0.0237
     72 H           0.5449   -5.8888    7.6328 H       1  UNL1        0.0237
     73 H          -4.0113   -2.1962    3.8860 H       1  UNL1        0.2220
     74 H          -4.0797   -2.8452    7.1132 H       1  UNL1        0.2220
     75 H           0.9853    3.3081    3.3564 H       1  UNL1        0.1048
     76 H           1.3069   -8.2788    5.0240 H       1  UNL1        0.2220
     77 H           1.1089    1.3152   -1.5134 H       1  UNL1        0.1438
     78 H           0.9477    3.0008   -1.1589 H       1  UNL1        0.1438
     79 H           3.0875   -1.6479    7.2538 H       1  UNL1        0.2105
     80 H           0.2078   -2.0930    7.3286 H       1  UNL1        0.1488
     81 H          -1.5118   -0.9920    9.1993 H       1  UNL1        0.0467
     82 H          -1.3356   -0.5758    7.4963 H       1  UNL1        0.0467
     83 H           6.1516   -4.1927    5.7602 H       1  UNL1        0.2220
     84 H           0.2945    0.6672    9.7561 H       1  UNL1        0.0374
     85 H          -1.1210    1.3762    8.9670 H       1  UNL1        0.0374
     86 H           0.7335    2.9340    9.1831 H       1  UNL1        0.1487
     87 H           1.7843    3.4605    6.4704 H       1  UNL1        0.0470
     88 H           2.9221    3.1314    7.7695 H       1  UNL1        0.0470
     89 H           0.8553    5.4019    7.6401 H       1  UNL1        0.0396
     90 H           2.5995    5.6166    7.5223 H       1  UNL1        0.0396
     91 H           4.8716    5.1899   11.7418 H       1  UNL1        0.0356
     92 H           3.2015    5.4689   12.2063 H       1  UNL1        0.0356
     93 H           3.9816    3.4957   13.3146 H       1  UNL1        0.0382
     94 H           2.7500    3.0053   12.1395 H       1  UNL1        0.0382
     95 H           5.3271    3.3606   10.1502 H       1  UNL1        0.2951
@<TRIPOS>BOND
     1     1    51    1
     2     1    52    1
     3     2     6    1
     4     2     9    1
     5     2    10    1
     6     2    13    2
     7     3     8    1
     8     3    11    1
     9     3    14    1
    10     3    16    2
    11     4    11    1
    12     4    12    1
    13     4    17    1
    14     4    18    2
    15     5    33    1
    16     5    34    1
    17    31     6    1
    18    32     7    1
    19     7    62    1
    20     8    35    1
    21     9    73    1
    22    10    74    1
    23    12    41    1
    24    14    76    1
    25    15    79    1
    26    17    83    1
    27    19    46    2
    28    20    49    2
    29    21    52    2
    30    22    55    1
    31    22    95    1
    32    23    55    2
    33    34    24    1
    34    24    36   ar
    35    24    37   ar
    36    25    37   ar
    37    25    38   ar
    38    26    36   ar
    39    26    45   ar
    40    27    42   ar
    41    27    45   ar
    42    28    42    1
    43    28    77    1
    44    28    78    1
    45    29    46   am
    46    29    47    1
    47    29    80    1
    48    30    49   am
    49    30    50    1
    50    30    86    1
    51    31    32    1
    52    31    33    1
    53    31    56    1
    54    32    34    1
    55    32    57    1
    56    34    59    1
    57    35    60    1
    58    35    61    1
    59    36    38   ar
    60    37    63    1
    61    38    42   ar
    62    39    41    1
    63    39    43    1
    64    39    44    1
    65    40    46    1
    66    40    64    1
    67    41    65    1
    68    41    66    1
    69    43    67    1
    70    43    68    1
    71    43    69    1
    72    44    70    1
    73    44    71    1
    74    44    72    1
    75    45    75    1
    76    47    48    1
    77    47    81    1
    78    47    82    1
    79    48    49    1
    80    48    84    1
    81    48    85    1
    82    50    51    1
    83    50    87    1
    84    50    88    1
    85    51    89    1
    86    51    90    1
    87    52    53    1
    88    53    54    1
    89    53    91    1
    90    53    92    1
    91    54    55    1
    92    54    93    1
    93    54    94    1
    94    33    58    1
    95    33    35    1
    96    40    39    1
    97    40    15    1
