@<TRIPOS>MOLECULE
tetrahydrofolate
 55 57 0 0 0
SMALL
GASTEIGER

@<TRIPOS>ATOM
      1 O          -4.6167   -1.3023   -2.5856 O.2     1  UNL1       -0.2657
      2 O           3.9626    1.8115    1.9048 O.2     1  UNL1       -0.2702
      3 O           7.7660    0.7589   -1.2313 O.3     1  UNL1       -0.4793
      4 OXT         5.8190    0.9060   -2.3879 O.2     1  UNL1       -0.2489
      5 OE1         5.5813   -4.3911   -0.1041 O.3     1  UNL1       -0.4806
      6 OE2         6.4822   -3.4072    1.7309 O.2     1  UNL1       -0.2510
      7 N          -4.5692    0.9779   -0.9891 N.pl3   1  UNL1       -0.3311
      8 N          -5.8608    0.8738    1.4039 N.pl3   1  UNL1       -0.3256
      9 N          -1.9564    1.9129   -0.4069 N.pl3   1  UNL1       -0.3420
     10 N          -6.4425   -1.4477    1.0401 N.ar    1  UNL1       -0.1994
     11 N          -5.8041   -2.4580   -0.9833 N.ar    1  UNL1       -0.2937
     12 N           4.3316    0.8023   -0.1499 N.am    1  UNL1       -0.2983
     13 N          -6.9912   -3.6836    0.6070 N.pl3   1  UNL1       -0.3289
     14 C          -4.3552    2.1142   -0.1028 C.3     1  UNL1        0.0517
     15 C          -5.5075    2.1972    0.9129 C.3     1  UNL1        0.0303
     16 C          -2.9976    1.9720    0.5839 C.3     1  UNL1        0.0289
     17 C          -5.2078   -0.1738   -0.5794 C.ar    1  UNL1        0.1330
     18 C          -5.8425   -0.2771    0.6142 C.ar    1  UNL1        0.1487
     19 C          -5.1694   -1.3448   -1.4910 C.ar    1  UNL1        0.2755
     20 C          -0.6065    1.7892   -0.1053 C.ar    1  UNL1        0.0272
     21 CA          5.7490    0.5796    0.0246 C.3     1  UNL1        0.1209
     22 C          -6.4170   -2.4896    0.2583 C.ar    1  UNL1        0.1948
     23 CB          6.0590   -0.7627    0.6981 C.3     1  UNL1       -0.0140
     24 C           0.3352    1.7404   -1.1332 C.ar    1  UNL1       -0.0401
     25 C          -0.1921    1.7144    1.2246 C.ar    1  UNL1       -0.0401
     26 C           2.1058    1.5417    0.4985 C.ar    1  UNL1        0.0368
     27 C           1.6913    1.6167   -0.8313 C.ar    1  UNL1       -0.0479
     28 C           1.1640    1.5907    1.5264 C.ar    1  UNL1       -0.0479
     29 CG          5.6212   -2.0144   -0.0728 C.3     1  UNL1        0.0470
     30 C           3.5194    1.4116    0.8136 C.2     0  ACE0        0.2447
     31 C           6.4104    0.7530   -1.3271 C.2     1  UNL1        0.3253
     32 CD          5.9386   -3.3115    0.6394 C.2     1  UNL1        0.3048
     33 H          -4.3520    3.0317   -0.7046 H       1  UNL1        0.0528
     34 H          -5.2538    2.8551    1.7509 H       1  UNL1        0.0480
     35 H          -6.3917    2.6225    0.4225 H       1  UNL1        0.0480
     36 H          -2.9812    1.0637    1.1991 H       1  UNL1        0.0480
     37 H          -2.8427    2.8343    1.2438 H       1  UNL1        0.0480
     38 H          -4.0911    0.9541   -1.8837 H       1  UNL1        0.1467
     39 H          -6.3522    0.7969    2.2883 H       1  UNL1        0.1476
     40 H          -2.2093    1.9778   -1.3870 H       1  UNL1        0.1461
     41 HA          6.1264    1.3875    0.6642 H       1  UNL1        0.0614
     42 H          -5.8183   -3.3012   -1.5493 H       1  UNL1        0.1716
     43 HB1         7.1395   -0.8294    0.8811 H       1  UNL1        0.0294
     44 HB2         5.5847   -0.7801    1.6884 H       1  UNL1        0.0294
     45 H           0.0261    1.8045   -2.1735 H       1  UNL1        0.0636
     46 H          -0.8914    1.7481    2.0547 H       1  UNL1        0.0636
     47 H           3.9126    0.4191   -0.9911 H       1  UNL1        0.1498
     48 H           2.3926    1.6138   -1.6605 H       1  UNL1        0.0626
     49 H           1.4663    1.5292    2.5687 H       1  UNL1        0.0626
     50 HG1         6.1245   -2.0397   -1.0456 H       1  UNL1        0.0378
     51 HG2         4.5385   -1.9862   -0.2374 H       1  UNL1        0.0378
     52 H          -7.4623   -3.7995    1.4976 H       1  UNL1        0.1451
     53 H          -6.9624   -4.4855   -0.0132 H       1  UNL1        0.1451
     54 H           8.1933    0.8871   -2.1050 H       1  UNL1        0.2951
     55 HE1         5.8021   -5.2342    0.3462 H       1  UNL1        0.2951
@<TRIPOS>BOND
     1     1    19    2
     2     2    30    2
     3     3    31    1
     4     3    54    1
     5     4    31    2
     6     5    32    1
     7     5    55    1
     8     6    32    2
     9     7    14    1
    10     7    17    1
    11     7    38    1
    12     8    15    1
    13     8    18    1
    14     8    39    1
    15     9    16    1
    16     9    20    1
    17     9    40    1
    18    10    18   ar
    19    10    22   ar
    20    11    19   ar
    21    11    22   ar
    22    11    42    1
    23    12    21    1
    24    12    30   am
    25    12    47    1
    26    13    22    1
    27    13    52    1
    28    13    53    1
    29    14    15    1
    30    14    16    1
    31    14    33    1
    32    15    34    1
    33    15    35    1
    34    16    36    1
    35    16    37    1
    36    17    18   ar
    37    17    19   ar
    38    20    24   ar
    39    20    25   ar
    40    21    23    1
    41    21    31    1
    42    21    41    1
    43    23    29    1
    44    23    43    1
    45    23    44    1
    46    24    27   ar
    47    24    45    1
    48    25    28   ar
    49    25    46    1
    50    26    27   ar
    51    26    28   ar
    52    26    30    1
    53    27    48    1
    54    28    49    1
    55    29    32    1
    56    29    50    1
    57    29    51    1
