@<TRIPOS>MOLECULE
tetrahydrobiopterin
 32 33 0 0 0
SMALL
GASTEIGER

@<TRIPOS>ATOM
      1 O           2.5382    0.9556    1.4513 O.3     1  UNL1       -0.3874
      2 O           4.0400   -0.7593   -1.4257 O.3     1  UNL1       -0.3894
      3 O          -1.8770    2.6018   -0.3374 O.2     1  UNL1       -0.2657
      4 N           0.2791    0.8438   -0.2111 N.pl3   1  UNL1       -0.3301
      5 N          -0.2611   -1.7945    0.1790 N.pl3   1  UNL1       -0.3255
      6 N          -2.6423   -1.3601    0.1319 N.ar    1  UNL1       -0.1994
      7 N          -3.3711    0.8611   -0.1098 N.ar    1  UNL1       -0.2937
      8 N          -4.9308   -0.8597    0.1050 N.pl3   1  UNL1       -0.3289
      9 C           1.3976   -0.0755   -0.3817 C.3     1  UNL1        0.0646
     10 C           2.6882    0.5835    0.0839 C.3     1  UNL1        0.1004
     11 C           1.1129   -1.3695    0.3992 C.3     1  UNL1        0.0313
     12 C           3.9007   -0.3432   -0.0686 C.3     1  UNL1        0.0801
     13 C          -1.0215    0.3971   -0.1028 C.ar    1  UNL1        0.1330
     14 C          -1.3364   -0.9109    0.0673 C.ar    1  UNL1        0.1487
     15 C           5.2024    0.3186    0.3684 C.3     1  UNL1       -0.0364
     16 C          -2.1073    1.4050   -0.1957 C.ar    1  UNL1        0.2755
     17 C          -3.6118   -0.4938    0.0466 C.ar    1  UNL1        0.1948
     18 H           1.4646   -0.3156   -1.4506 H       1  UNL1        0.0539
     19 H           2.8554    1.5004   -0.4958 H       1  UNL1        0.0638
     20 H           1.7819   -2.1748    0.0793 H       1  UNL1        0.0481
     21 H           1.2535   -1.2298    1.4773 H       1  UNL1        0.0481
     22 H           0.4149    1.8298   -0.4101 H       1  UNL1        0.1467
     23 H           3.7769   -1.2388    0.5504 H       1  UNL1        0.0617
     24 H          -0.5014   -2.7688    0.3292 H       1  UNL1        0.1476
     25 H           5.4117    1.2046   -0.2410 H       1  UNL1        0.0255
     26 H           5.1720    0.6161    1.4207 H       1  UNL1        0.0255
     27 H           6.0474   -0.3646    0.2283 H       1  UNL1        0.0255
     28 H           1.7695    1.5481    1.5117 H       1  UNL1        0.2100
     29 H           4.7926   -1.3735   -1.4700 H       1  UNL1        0.2099
     30 H          -4.1676    1.4886   -0.1676 H       1  UNL1        0.1716
     31 H          -5.2020   -1.8303    0.2182 H       1  UNL1        0.1451
     32 H          -5.6739   -0.1729    0.0369 H       1  UNL1        0.1451
@<TRIPOS>BOND
     1     1    10    1
     2     1    28    1
     3     2    12    1
     4     2    29    1
     5     3    16    2
     6     4     9    1
     7     4    13    1
     8     4    22    1
     9     5    11    1
    10     5    14    1
    11     5    24    1
    12     6    14   ar
    13     6    17   ar
    14     7    16   ar
    15     7    17   ar
    16     7    30    1
    17     8    17    1
    18     8    31    1
    19     8    32    1
    20     9    10    1
    21     9    11    1
    22     9    18    1
    23    10    12    1
    24    10    19    1
    25    11    20    1
    26    11    21    1
    27    12    15    1
    28    12    23    1
    29    13    14   ar
    30    13    16   ar
    31    15    25    1
    32    15    26    1
    33    15    27    1
