@<TRIPOS>MOLECULE
thiamine_pyrophosphate
 44 45 0 0 0
SMALL
GASTEIGER

@<TRIPOS>ATOM
      1 S          -1.0244   -2.6160    1.6757 S.2     1  UNL1       -0.0273
      2 P          -4.0148    0.7585    0.2893 P.3     1  UNL1        0.4804
      3 P          -1.5385    2.2241   -0.3592 P.3     1  UNL1        0.2196
      4 O          -3.2908   -0.6883    0.2520 O.3     1  UNL1       -0.2861
      5 O          -3.0663    1.7108   -0.6110 O.3     1  UNL1       -0.2294
      6 O          -5.3336    0.5735   -0.6295 O.3     1  UNL1       -0.3023
      7 O          -4.2887    1.2898    1.6664 O.2     1  UNL1       -0.2270
      8 O          -1.3526    3.1172   -1.7134 O.3     1  UNL1       -0.3433
      9 O          -0.5995    1.0408   -0.4319 O.co2   1  UNL1       -0.4372
     10 O          -1.5249    3.1532    0.8345 O.2     1  UNL1       -0.5171
     11 N           1.1675   -2.2663    0.5108 N.ar    1  UNL1       -0.1903
     12 N           3.9898    1.3114   -0.6351 N.ar    1  UNL1       -0.2176
     13 N           2.5985    1.5437    1.3188 N.ar    1  UNL1       -0.2400
     14 N           4.2825   -0.8129   -1.6479 N.pl3   1  UNL1       -0.3427
     15 C           0.2438   -2.3292   -0.5087 C.ar    1  UNL1        0.1915
     16 C          -1.0052   -2.5192   -0.0247 C.ar    1  UNL1        0.0636
     17 C           2.5811   -2.0702    0.2945 C.3     1  UNL1        0.1811
     18 C          -2.3053   -2.6461   -0.7829 C.3     1  UNL1        0.0088
     19 C           0.6718   -2.3986    1.7221 C.ar    1  UNL1        0.2109
     20 C           2.8940   -0.5989    0.2972 C.ar    1  UNL1        0.0747
     21 C          -2.9807   -1.2934   -0.9916 C.3     1  UNL1        0.0637
     22 C           0.7211   -2.1907   -1.8924 C.3     1  UNL1        0.0216
     23 C           3.7070   -0.0079   -0.6340 C.ar    1  UNL1        0.1289
     24 C           2.3584    0.2173    1.2599 C.ar    1  UNL1        0.0421
     25 C           3.4106    2.0174    0.3546 C.ar    1  UNL1        0.1280
     26 C           3.6996    3.4799    0.3865 C.3     1  UNL1       -0.0046
     27 H           3.1457   -2.5449    1.1087 H       1  UNL1        0.1087
     28 H           2.8890   -2.5959   -0.6118 H       1  UNL1        0.1087
     29 H          -2.1245   -3.1207   -1.7541 H       1  UNL1        0.0343
     30 H          -2.9848   -3.3096   -0.2326 H       1  UNL1        0.0343
     31 H           1.2563   -2.3896    2.6321 H       1  UNL1        0.1462
     32 H          -3.9083   -1.4398   -1.5546 H       1  UNL1        0.0569
     33 H          -2.3345   -0.6290   -1.5732 H       1  UNL1        0.0569
     34 H           1.2572   -1.2500   -2.0434 H       1  UNL1        0.0336
     35 H           1.3688   -3.0260   -2.1757 H       1  UNL1        0.0336
     36 H          -0.1137   -2.1852   -2.6011 H       1  UNL1        0.0336
     37 H           1.7263   -0.1293    2.0653 H       1  UNL1        0.0836
     38 H           4.8508   -0.3216   -2.3283 H       1  UNL1        0.1437
     39 H           4.5840   -1.7480   -1.4035 H       1  UNL1        0.1437
     40 H           4.4046    3.7641   -0.4010 H       1  UNL1        0.0308
     41 H           2.7744    4.0459    0.2414 H       1  UNL1        0.0308
     42 H           4.1343    3.7556    1.3521 H       1  UNL1        0.0308
     43 H          -6.1238    0.1400   -0.2426 H       1  UNL1        0.2220
     44 H          -1.1718    2.6518   -2.5577 H       1  UNL1        0.2176
@<TRIPOS>UNITY_ATOM_ATTR
9 1
charge -1
11 1
charge 1
@<TRIPOS>BOND
     1     1    16   ar
     2     1    19   ar
     3     2     4    1
     4     2     5    1
     5     2     6    1
     6     2     7    2
     7     3     5    1
     8     3     8    1
     9     3     9    1
    10     3    10    2
    11     4    21    1
    12     6    43    1
    13     8    44    1
    14    11    15   ar
    15    11    17    1
    16    11    19   ar
    17    12    23   ar
    18    12    25   ar
    19    13    24   ar
    20    13    25   ar
    21    14    23    1
    22    14    38    1
    23    14    39    1
    24    15    16   ar
    25    15    22    1
    26    16    18    1
    27    17    20    1
    28    17    27    1
    29    17    28    1
    30    18    21    1
    31    18    29    1
    32    18    30    1
    33    19    31    1
    34    20    23   ar
    35    20    24   ar
    36    21    32    1
    37    21    33    1
    38    22    34    1
    39    22    35    1
    40    22    36    1
    41    24    37    1
    42    25    26    1
    43    26    40    1
    44    26    41    1
    45    26    42    1
