@<TRIPOS>MOLECULE
ubiquinone_q10
 153 153 0 0 0
SMALL
GASTEIGER

@<TRIPOS>ATOM
      1 C           0.4510   -2.0120  -16.5220 C.2     1  UNL1        0.0072
      2 C           1.7100   -1.5280  -17.1270 C.2     1  UNL1        0.2273
      3 C           1.8560   -0.1050  -17.4880 C.2     1  UNL1        0.2128
      4 C           0.8320    0.7530  -17.2740 C.2     1  UNL1        0.2128
      5 C          -0.4230    0.2630  -16.6750 C.2     1  UNL1        0.2278
      6 C          -0.5610   -1.1630  -16.3100 C.2     1  UNL1        0.0135
      7 C           0.3050   -3.4640  -16.1480 C.3     1  UNL1       -0.0356
      8 C           4.0120    0.2700  -17.0180 C.3     1  UNL1        0.0791
      9 C           0.0810    2.2930  -18.7130 C.3     1  UNL1        0.0791
     10 C          -1.8450   -1.6620  -15.6980 C.3     1  UNL1       -0.0051
     11 C          -1.7650   -1.5450  -14.1980 C.2     1  UNL1       -0.0806
     12 C          -2.7100   -0.9230  -13.5380 C.2     1  UNL1       -0.0759
     13 C          -3.9520   -0.4610  -14.2550 C.3     1  UNL1       -0.0438
     14 C          -2.5540   -0.6680  -12.0610 C.3     1  UNL1       -0.0286
     15 C          -1.8680    0.6810  -11.8450 C.3     1  UNL1       -0.0308
     16 C          -1.7120    0.9360  -10.3680 C.2     1  UNL1       -0.0847
     17 C          -0.5380    1.2420   -9.8760 C.2     1  UNL1       -0.0762
     18 C           0.6240    1.4940  -10.8020 C.3     1  UNL1       -0.0438
     19 C          -0.3480    1.3420   -8.3840 C.3     1  UNL1       -0.0286
     20 C           0.0590   -0.0230   -7.8290 C.3     1  UNL1       -0.0308
     21 C           0.2480    0.0760   -6.3380 C.2     1  UNL1       -0.0847
     22 C          -0.3810   -0.7500   -5.5410 C.2     1  UNL1       -0.0762
     23 C          -1.3810   -1.7260   -6.1050 C.3     1  UNL1       -0.0438
     24 C          -0.1050   -0.7260   -4.0590 C.3     1  UNL1       -0.0286
     25 C          -1.0620    0.2540   -3.3790 C.3     1  UNL1       -0.0308
     26 C          -0.7860    0.2790   -1.8970 C.2     1  UNL1       -0.0847
     27 C          -0.3790    1.3840   -1.3250 C.2     1  UNL1       -0.0762
     28 C          -0.0280    2.5840   -2.1670 C.3     1  UNL1       -0.0438
     29 C          -0.2610    1.4570    0.1750 C.3     1  UNL1       -0.0286
     30 C           1.1430    1.0220    0.5970 C.3     1  UNL1       -0.0308
     31 C           1.2610    1.0950    2.0980 C.2     1  UNL1       -0.0847
     32 C           1.6900    0.0570    2.7720 C.2     1  UNL1       -0.0762
     33 C           2.2270   -1.1460    2.0420 C.3     1  UNL1       -0.0438
     34 C           1.6470    0.0660    4.2790 C.3     1  UNL1       -0.0286
     35 C           0.3070   -0.5000    4.7540 C.3     1  UNL1       -0.0308
     36 C           0.2640   -0.4900    6.2600 C.2     1  UNL1       -0.0847
     37 C          -0.6880    0.1570    6.8840 C.2     1  UNL1       -0.0762
     38 C          -1.6360    1.0340    6.1070 C.3     1  UNL1       -0.0438
     39 C          -0.8340    0.0270    8.3780 C.3     1  UNL1       -0.0286
     40 C           0.0010    1.1060    9.0690 C.3     1  UNL1       -0.0308
     41 C          -0.1450    0.9750   10.5630 C.2     1  UNL1       -0.0847
     42 C           0.9130    0.7910   11.3110 C.2     1  UNL1       -0.0762
     43 C           2.2540    0.5380   10.6710 C.3     1  UNL1       -0.0438
     44 C           0.7910    0.8330   12.8130 C.3     1  UNL1       -0.0286
     45 C           0.4900   -0.5700   13.3400 C.3     1  UNL1       -0.0308
     46 C           0.3680   -0.5280   14.8410 C.2     1  UNL1       -0.0847
     47 C          -0.7340   -0.9320   15.4200 C.2     1  UNL1       -0.0762
     48 C          -1.9410   -1.2750   14.5860 C.3     1  UNL1       -0.0438
     49 C          -0.7970   -1.0540   16.9210 C.3     1  UNL1       -0.0286
     50 C          -1.2690    0.2710   17.5210 C.3     1  UNL1       -0.0308
     51 C          -1.3320    0.1490   19.0220 C.2     1  UNL1       -0.0847
     52 C          -0.7180    1.0260   19.7760 C.2     1  UNL1       -0.0762
     53 C          -0.0840    2.2430   19.1530 C.3     1  UNL1       -0.0438
     54 C          -0.6470    0.8190   21.2670 C.3     1  UNL1       -0.0286
     55 C           0.6130    0.0220   21.6120 C.3     1  UNL1       -0.0308
     56 C           0.6840   -0.1840   23.1030 C.2     1  UNL1       -0.0850
     57 C           0.7950   -1.3940   23.5910 C.2     1  UNL1       -0.0796
     58 C           0.6930   -1.6190   25.0780 C.3     1  UNL1       -0.0440
     59 C           1.0260   -2.5620   22.6660 C.3     1  UNL1       -0.0440
     60 O           2.6280   -2.3000  -17.3180 O.2     1  UNL1       -0.2836
     61 O           3.0140    0.3410  -18.0390 O.2     1  UNL1       -0.4883
     62 O           0.9600    2.0620  -17.6100 O.2     1  UNL1       -0.4883
     63 O          -1.3440    1.0310  -16.4820 O.2     1  UNL1       -0.2836
     64 H           1.2250   -3.9960  -16.3920 H       1  UNL1        0.0279
     65 H           0.1110   -3.5470  -15.0790 H       1  UNL1        0.0279
     66 H          -0.5240   -3.9010  -16.7030 H       1  UNL1        0.0279
     67 H           4.9770    0.5610  -17.4320 H       1  UNL1        0.0660
     68 H           3.7470    0.9460  -16.2040 H       1  UNL1        0.0660
     69 H           4.0710   -0.7490  -16.6380 H       1  UNL1        0.0660
     70 H           0.1030    3.3500  -18.9790 H       1  UNL1        0.0660
     71 H           0.4040    1.6960  -19.5660 H       1  UNL1        0.0660
     72 H          -0.9330    2.0090  -18.4340 H       1  UNL1        0.0660
     73 H          -2.6790   -1.0630  -16.0650 H       1  UNL1        0.0357
     74 H          -1.9980   -2.7050  -15.9740 H       1  UNL1        0.0357
     75 H          -0.9290   -1.9750  -13.6670 H       1  UNL1        0.0575
     76 H          -3.9290   -0.8160  -15.2860 H       1  UNL1        0.0274
     77 H          -4.8320   -0.8610  -13.7520 H       1  UNL1        0.0274
     78 H          -3.9930    0.6270  -14.2470 H       1  UNL1        0.0274
     79 H          -3.5370   -0.6550  -11.5890 H       1  UNL1        0.0313
     80 H          -1.9490   -1.4580  -11.6170 H       1  UNL1        0.0313
     81 H          -0.8850    0.6690  -12.3170 H       1  UNL1        0.0310
     82 H          -2.4730    1.4720  -12.2890 H       1  UNL1        0.0310
     83 H          -2.5700    0.8660   -9.7150 H       1  UNL1        0.0572
     84 H           0.2770    1.4730  -11.8350 H       1  UNL1        0.0274
     85 H           1.0570    2.4700  -10.5840 H       1  UNL1        0.0274
     86 H           1.3790    0.7210  -10.6560 H       1  UNL1        0.0274
     87 H           0.4310    2.0710   -8.1650 H       1  UNL1        0.0313
     88 H          -1.2820    1.6590   -7.9200 H       1  UNL1        0.0313
     89 H          -0.7210   -0.7520   -8.0480 H       1  UNL1        0.0310
     90 H           0.9930   -0.3400   -8.2940 H       1  UNL1        0.0310
     91 H           0.9040    0.8290   -5.9260 H       1  UNL1        0.0572
     92 H          -1.3790   -1.6610   -7.1930 H       1  UNL1        0.0274
     93 H          -1.1130   -2.7380   -5.8010 H       1  UNL1        0.0274
     94 H          -2.3760   -1.4850   -5.7290 H       1  UNL1        0.0274
     95 H          -0.2530   -1.7230   -3.6460 H       1  UNL1        0.0313
     96 H           0.9220   -0.4100   -3.8860 H       1  UNL1        0.0313
     97 H          -0.9140    1.2520   -3.7920 H       1  UNL1        0.0310
     98 H          -2.0910   -0.0610   -3.5520 H       1  UNL1        0.0310
     99 H          -0.9250   -0.6140   -1.3070 H       1  UNL1        0.0572
    100 H          -0.0830    2.3160   -3.2220 H       1  UNL1        0.0274
    101 H          -0.7300    3.3910   -1.9600 H       1  UNL1        0.0274
    102 H           0.9830    2.9120   -1.9280 H       1  UNL1        0.0274
    103 H          -0.4390    2.4810    0.5040 H       1  UNL1        0.0313
    104 H          -0.9980    0.7950    0.6300 H       1  UNL1        0.0313
    105 H           1.3210   -0.0000    0.2680 H       1  UNL1        0.0310
    106 H           1.8800    1.6840    0.1430 H       1  UNL1        0.0310
    107 H           0.9920    2.0030    2.6180 H       1  UNL1        0.0572
    108 H           2.1470   -0.9840    0.9670 H       1  UNL1        0.0274
    109 H           3.2730   -1.2970    2.3090 H       1  UNL1        0.0274
    110 H           1.6500   -2.0280    2.3210 H       1  UNL1        0.0274
    111 H           2.4590   -0.5450    4.6690 H       1  UNL1        0.0313
    112 H           1.7570    1.0890    4.6390 H       1  UNL1        0.0313
    113 H          -0.5050    0.1120    4.3630 H       1  UNL1        0.0310
    114 H           0.1970   -1.5220    4.3940 H       1  UNL1        0.0310
    115 H           1.0180   -1.0180    6.8250 H       1  UNL1        0.0572
    116 H          -1.3110    1.0890    5.0680 H       1  UNL1        0.0274
    117 H          -2.6400    0.6110    6.1520 H       1  UNL1        0.0274
    118 H          -1.6430    2.0340    6.5400 H       1  UNL1        0.0274
    119 H          -1.8820    0.1480    8.6520 H       1  UNL1        0.0313
    120 H          -0.4880   -0.9570    8.6920 H       1  UNL1        0.0313
    121 H           1.0490    0.9840    8.7950 H       1  UNL1        0.0310
    122 H          -0.3440    2.0910    8.7540 H       1  UNL1        0.0310
    123 H          -1.1230    1.0340   11.0160 H       1  UNL1        0.0572
    124 H           2.1280    0.4350    9.5930 H       1  UNL1        0.0274
    125 H           2.9210    1.3740   10.8810 H       1  UNL1        0.0274
    126 H           2.6820   -0.3780   11.0760 H       1  UNL1        0.0274
    127 H           1.7270    1.1900   13.2440 H       1  UNL1        0.0313
    128 H          -0.0170    1.5080   13.0930 H       1  UNL1        0.0313
    129 H          -0.4440   -0.9270   12.9090 H       1  UNL1        0.0310
    130 H           1.3000   -1.2450   13.0600 H       1  UNL1        0.0310
    131 H           1.1910   -0.1650   15.4400 H       1  UNL1        0.0572
    132 H          -1.7450   -1.0240   13.5430 H       1  UNL1        0.0274
    133 H          -2.1500   -2.3410   14.6700 H       1  UNL1        0.0274
    134 H          -2.8010   -0.7070   14.9400 H       1  UNL1        0.0274
    135 H          -1.4950   -1.8460   17.1920 H       1  UNL1        0.0313
    136 H           0.1930   -1.2950   17.3070 H       1  UNL1        0.0313
    137 H          -0.5710    1.0620   17.2500 H       1  UNL1        0.0310
    138 H          -2.2600    0.5120   17.1350 H       1  UNL1        0.0310
    139 H          -1.8830   -0.6610   19.4750 H       1  UNL1        0.0572
    140 H          -0.3190    2.2710   18.0900 H       1  UNL1        0.0274
    141 H          -0.4700    3.1410   19.6350 H       1  UNL1        0.0274
    142 H           0.9960    2.1970   19.2850 H       1  UNL1        0.0274
    143 H          -0.6120    1.7870   21.7670 H       1  UNL1        0.0313
    144 H          -1.5270    0.2690   21.6000 H       1  UNL1        0.0313
    145 H           0.5790   -0.9450   21.1110 H       1  UNL1        0.0310
    146 H           1.4930    0.5730   21.2790 H       1  UNL1        0.0310
    147 H           0.6440    0.6650   23.7680 H       1  UNL1        0.0572
    148 H           0.8090   -2.6810   25.2930 H       1  UNL1        0.0274
    149 H           1.4770   -1.0570   25.5850 H       1  UNL1        0.0274
    150 H          -0.2810   -1.2820   25.4300 H       1  UNL1        0.0274
    151 H           1.1800   -2.1960   21.6510 H       1  UNL1        0.0274
    152 H           1.9080   -3.1140   22.9910 H       1  UNL1        0.0274
    153 H           0.1570   -3.2200   22.6880 H       1  UNL1        0.0274
@<TRIPOS>BOND
     1     1     2    1
     2     1     6    2
     3     1     7    1
     4     2     3    1
     5     2    60    2
     6     3     4    2
     7     3    61    1
     8     4     5    1
     9     4    62    1
    10     5     6    1
    11     5    63    2
    12     6    10    1
    13     7    64    1
    14     7    65    1
    15     7    66    1
    16     8    61    1
    17     8    67    1
    18     8    68    1
    19     8    69    1
    20     9    62    1
    21     9    70    1
    22     9    71    1
    23     9    72    1
    24    10    11    1
    25    10    73    1
    26    10    74    1
    27    11    12    2
    28    11    75    1
    29    12    13    1
    30    12    14    1
    31    13    76    1
    32    13    77    1
    33    13    78    1
    34    14    15    1
    35    14    79    1
    36    14    80    1
    37    15    16    1
    38    15    81    1
    39    15    82    1
    40    16    17    2
    41    16    83    1
    42    17    18    1
    43    17    19    1
    44    18    84    1
    45    18    85    1
    46    18    86    1
    47    19    20    1
    48    19    87    1
    49    19    88    1
    50    20    21    1
    51    20    89    1
    52    20    90    1
    53    21    22    2
    54    21    91    1
    55    22    23    1
    56    22    24    1
    57    23    92    1
    58    23    93    1
    59    23    94    1
    60    24    25    1
    61    24    95    1
    62    24    96    1
    63    25    26    1
    64    25    97    1
    65    25    98    1
    66    26    27    2
    67    26    99    1
    68    27    28    1
    69    27    29    1
    70    28   100    1
    71    28   101    1
    72    28   102    1
    73    29    30    1
    74    29   103    1
    75    29   104    1
    76    30    31    1
    77    30   105    1
    78    30   106    1
    79    31    32    2
    80    31   107    1
    81    32    33    1
    82    32    34    1
    83    33   108    1
    84    33   109    1
    85    33   110    1
    86    34    35    1
    87    34   111    1
    88    34   112    1
    89    35    36    1
    90    35   113    1
    91    35   114    1
    92    36    37    2
    93    36   115    1
    94    37    38    1
    95    37    39    1
    96    38   116    1
    97    38   117    1
    98    38   118    1
    99    39    40    1
   100    39   119    1
   101    39   120    1
   102    40    41    1
   103    40   121    1
   104    40   122    1
   105    41    42    2
   106    41   123    1
   107    42    43    1
   108    42    44    1
   109    43   124    1
   110    43   125    1
   111    43   126    1
   112    44    45    1
   113    44   127    1
   114    44   128    1
   115    45    46    1
   116    45   129    1
   117    45   130    1
   118    46    47    2
   119    46   131    1
   120    47    48    1
   121    47    49    1
   122    48   132    1
   123    48   133    1
   124    48   134    1
   125    49    50    1
   126    49   135    1
   127    49   136    1
   128    50    51    1
   129    50   137    1
   130    50   138    1
   131    51    52    2
   132    51   139    1
   133    52    53    1
   134    52    54    1
   135    53   140    1
   136    53   141    1
   137    53   142    1
   138    54    55    1
   139    54   143    1
   140    54   144    1
   141    55    56    1
   142    55   145    1
   143    55   146    1
   144    56    57    2
   145    56   147    1
   146    57    58    1
   147    57    59    1
   148    58   148    1
   149    58   149    1
   150    58   150    1
   151    59   151    1
   152    59   152    1
   153    59   153    1
