@<TRIPOS>MOLECULE
ubiquinol_q10
 155 155 0 0 0
SMALL
GASTEIGER

@<TRIPOS>ATOM
      1 O          -7.3876   -0.6824   -7.4645 O.3     1  UNL1       -0.5030
      2 O          -9.5862   -1.3413   -6.3215 O.3     1  UNL1       -0.4884
      3 O         -10.6866   -3.9622   -6.6277 O.3     1  UNL1       -0.4884
      4 O          -9.2337   -5.8262   -8.2526 O.3     1  UNL1       -0.5030
      5 C           8.9993  -10.3795   -4.7681 C.3     1  UNL1       -0.0286
      6 C          13.6855  -11.6784   -5.7381 C.3     1  UNL1       -0.0286
      7 C           6.0198   -6.4347   -4.9785 C.3     1  UNL1       -0.0286
      8 C          15.7566  -15.5746   -3.5172 C.3     1  UNL1       -0.0286
      9 C          10.0527  -10.1408   -5.8585 C.3     1  UNL1       -0.0308
     10 C          13.4051  -12.6110   -4.5555 C.3     1  UNL1       -0.0308
     11 C           5.9477   -7.9400   -4.6930 C.3     1  UNL1       -0.0308
     12 C           2.3713   -4.1884   -7.4994 C.3     1  UNL1       -0.0286
     13 C          16.8007  -14.6802   -2.8427 C.3     1  UNL1       -0.0308
     14 C           3.0786   -4.1039   -6.1414 C.3     1  UNL1       -0.0308
     15 C          12.5086  -10.7977   -6.1311 C.2     1  UNL1       -0.0762
     16 C           7.6428   -9.8001   -5.0881 C.2     1  UNL1       -0.0762
     17 C          19.5881  -16.0629   -0.4508 C.3     1  UNL1       -0.0286
     18 C          14.6138  -14.8102   -4.1575 C.2     1  UNL1       -0.0762
     19 C           4.6780   -5.7197   -4.9675 C.2     1  UNL1       -0.0762
     20 C          20.4665  -16.6281   -1.5684 C.3     1  UNL1       -0.0308
     21 C          18.2902  -15.4430   -0.9393 C.2     1  UNL1       -0.0762
     22 C           1.2087   -3.2232   -7.6348 C.2     1  UNL1       -0.0762
     23 C          -1.2944   -2.8341   -7.5911 C.3     1  UNL1       -0.0308
     24 C          -2.5264   -3.5619   -7.0402 C.3     1  UNL1       -0.0286
     25 C          11.3338  -10.8211   -5.4701 C.2     1  UNL1       -0.0847
     26 C           7.3128   -8.5738   -4.6401 C.2     1  UNL1       -0.0847
     27 C          14.5671  -13.4578   -4.1704 C.2     1  UNL1       -0.0847
     28 C           4.2671   -5.0319   -6.0533 C.2     1  UNL1       -0.0847
     29 C          17.9285  -15.4380   -2.2374 C.2     1  UNL1       -0.0847
     30 C          24.1960  -17.6902   -1.0437 C.3     1  UNL1       -0.0286
     31 C          -0.0426   -3.6235   -7.3382 C.2     1  UNL1       -0.0847
     32 C          22.9845  -16.8511   -1.3975 C.2     1  UNL1       -0.0762
     33 C          -3.7973   -2.8235   -7.3807 C.2     1  UNL1       -0.0759
     34 C          21.7345  -17.2342   -1.0711 C.2     1  UNL1       -0.0847
     35 C          23.9057  -19.1943   -1.0550 C.3     1  UNL1       -0.0308
     36 C          -5.7031   -2.4047   -9.0304 C.3     1  UNL1       -0.0053
     37 C          -7.0302   -2.8649   -8.4535 C.ar    1  UNL1        0.0080
     38 C          -4.4867   -3.1261   -8.4989 C.2     1  UNL1       -0.0806
     39 C          12.7338   -9.9283   -7.3362 C.3     1  UNL1       -0.0438
     40 C           6.6775  -10.7154   -5.7908 C.3     1  UNL1       -0.0438
     41 C          13.5170  -15.6619   -4.7387 C.3     1  UNL1       -0.0438
     42 C           3.9243   -5.7104   -3.6658 C.3     1  UNL1       -0.0438
     43 C          17.4492  -14.8000    0.1315 C.3     1  UNL1       -0.0438
     44 C           1.5199   -1.8602   -8.1926 C.3     1  UNL1       -0.0438
     45 C          25.0753  -20.0414   -0.6807 C.2     1  UNL1       -0.0847
     46 C          -7.5354   -4.1661   -8.6702 C.ar    1  UNL1        0.0018
     47 C          25.9665  -20.5908   -1.5259 C.2     1  UNL1       -0.0762
     48 C          26.9892  -21.6213   -1.0820 C.3     1  UNL1       -0.0286
     49 C          23.2686  -15.5928   -2.1778 C.3     1  UNL1       -0.0438
     50 C          -4.2444   -1.7606   -6.4161 C.3     1  UNL1       -0.0438
     51 C          -7.8019   -1.9852   -7.6611 C.ar    1  UNL1        0.1662
     52 C          -8.7569   -4.5514   -8.0562 C.ar    1  UNL1        0.1657
     53 C          26.9014  -22.0724    0.3876 C.3     1  UNL1       -0.0308
     54 C          -9.0164   -2.3629   -7.0483 C.ar    1  UNL1        0.2073
     55 C          -9.5038   -3.6677   -7.2437 C.ar    1  UNL1        0.2073
     56 C          -6.8008   -5.1663   -9.5426 C.3     1  UNL1       -0.0357
     57 C          26.0090  -20.2357   -2.9902 C.3     1  UNL1       -0.0438
     58 C          27.9444  -23.1044    0.7083 C.2     1  UNL1       -0.0850
     59 C          28.8855  -23.0111    1.6687 C.2     1  UNL1       -0.0796
     60 C          29.9257  -24.0797    1.8249 C.3     1  UNL1       -0.0440
     61 C          28.9775  -21.8511    2.6196 C.3     1  UNL1       -0.0440
     62 C         -10.7922   -1.5133   -5.6026 C.3     1  UNL1        0.0791
     63 C         -11.2988   -5.2336   -6.7125 C.3     1  UNL1        0.0791
     64 H           9.3635   -9.9636   -3.8177 H       1  UNL1        0.0313
     65 H           8.8853  -11.4567   -4.5792 H       1  UNL1        0.0313
     66 H          13.9645  -12.2880   -6.6077 H       1  UNL1        0.0313
     67 H          14.5490  -11.0387   -5.5067 H       1  UNL1        0.0313
     68 H           6.5241   -6.2844   -5.9424 H       1  UNL1        0.0313
     69 H           6.6587   -5.9487   -4.2286 H       1  UNL1        0.0313
     70 H          15.3339  -16.2515   -2.7628 H       1  UNL1        0.0313
     71 H          16.2370  -16.2018   -4.2788 H       1  UNL1        0.0313
     72 H           9.7033  -10.5697   -6.8050 H       1  UNL1        0.0310
     73 H          10.2139   -9.0669   -5.9979 H       1  UNL1        0.0310
     74 H          13.1719  -12.0053   -3.6672 H       1  UNL1        0.0310
     75 H          12.5234  -13.2330   -4.7613 H       1  UNL1        0.0310
     76 H           5.4945   -8.1112   -3.7105 H       1  UNL1        0.0310
     77 H           5.3015   -8.4222   -5.4327 H       1  UNL1        0.0310
     78 H           2.0172   -5.2156   -7.6595 H       1  UNL1        0.0313
     79 H           3.0862   -3.9969   -8.3106 H       1  UNL1        0.0313
     80 H          17.2529  -14.0196   -3.5953 H       1  UNL1        0.0310
     81 H          16.3225  -14.0347   -2.0987 H       1  UNL1        0.0310
     82 H           3.4486   -3.0823   -5.9905 H       1  UNL1        0.0310
     83 H           2.3558   -4.3019   -5.3438 H       1  UNL1        0.0310
     84 H          20.1539  -15.2887    0.0865 H       1  UNL1        0.0313
     85 H          19.3540  -16.8542    0.2763 H       1  UNL1        0.0313
     86 H          19.9247  -17.4314   -2.0836 H       1  UNL1        0.0310
     87 H          20.6707  -15.8573   -2.3189 H       1  UNL1        0.0310
     88 H          -1.4070   -2.7130   -8.6768 H       1  UNL1        0.0310
     89 H          -1.2225   -1.8347   -7.1471 H       1  UNL1        0.0310
     90 H          -2.4453   -3.6888   -5.9535 H       1  UNL1        0.0313
     91 H          -2.5696   -4.5793   -7.4533 H       1  UNL1        0.0313
     92 H          11.2422  -11.4422   -4.5824 H       1  UNL1        0.0572
     93 H           8.0781   -7.9972   -4.1193 H       1  UNL1        0.0572
     94 H          15.3952  -12.8778   -3.7725 H       1  UNL1        0.0572
     95 H           4.8951   -5.0665   -6.9437 H       1  UNL1        0.0572
     96 H          18.5270  -15.9344   -2.9948 H       1  UNL1        0.0572
     97 H          24.9840  -17.4950   -1.7828 H       1  UNL1        0.0313
     98 H          24.5909  -17.3694   -0.0727 H       1  UNL1        0.0313
     99 H          -0.1823   -4.6268   -6.9391 H       1  UNL1        0.0572
    100 H          21.5659  -18.1141   -0.4612 H       1  UNL1        0.0572
    101 H          23.1267  -19.4423   -0.3243 H       1  UNL1        0.0310
    102 H          23.5056  -19.4992   -2.0305 H       1  UNL1        0.0310
    103 H          -5.7424   -2.5199  -10.1213 H       1  UNL1        0.0357
    104 H          -5.5221   -1.3342   -8.9026 H       1  UNL1        0.0357
    105 H          -4.0905   -3.9035   -9.1518 H       1  UNL1        0.0575
    106 H          12.2691  -10.3735   -8.2205 H       1  UNL1        0.0274
    107 H          12.3247   -8.9246   -7.1805 H       1  UNL1        0.0274
    108 H          13.8030   -9.8034   -7.5385 H       1  UNL1        0.0274
    109 H           5.9718  -11.1411   -5.0705 H       1  UNL1        0.0274
    110 H           6.1222  -10.1885   -6.5723 H       1  UNL1        0.0274
    111 H           7.1997  -11.5447   -6.2797 H       1  UNL1        0.0274
    112 H          12.6686  -15.7186   -4.0504 H       1  UNL1        0.0274
    113 H          13.1740  -15.2621   -5.6996 H       1  UNL1        0.0274
    114 H          13.8676  -16.6809   -4.9327 H       1  UNL1        0.0274
    115 H           4.0569   -4.7519   -3.1570 H       1  UNL1        0.0274
    116 H           2.8549   -5.8822   -3.8235 H       1  UNL1        0.0274
    117 H           4.2627   -6.4929   -2.9813 H       1  UNL1        0.0274
    118 H          17.5851  -13.7141    0.1308 H       1  UNL1        0.0274
    119 H          16.3865  -15.0298   -0.0078 H       1  UNL1        0.0274
    120 H          17.7192  -15.1764    1.1234 H       1  UNL1        0.0274
    121 H           1.2755   -1.8222   -9.2591 H       1  UNL1        0.0274
    122 H           0.9616   -1.0743   -7.6734 H       1  UNL1        0.0274
    123 H           2.5820   -1.6176   -8.0810 H       1  UNL1        0.0274
    124 H          25.0928  -20.2848    0.3782 H       1  UNL1        0.0572
    125 H          26.8672  -22.5057   -1.7226 H       1  UNL1        0.0313
    126 H          27.9925  -21.2214   -1.2765 H       1  UNL1        0.0313
    127 H          23.0794  -15.7533   -3.2433 H       1  UNL1        0.0274
    128 H          22.6477  -14.7579   -1.8276 H       1  UNL1        0.0274
    129 H          24.3096  -15.2757   -2.0585 H       1  UNL1        0.0274
    130 H          -4.0967   -0.7648   -6.8444 H       1  UNL1        0.0274
    131 H          -5.2984   -1.8897   -6.1555 H       1  UNL1        0.0274
    132 H          -3.6859   -1.8108   -5.4766 H       1  UNL1        0.0274
    133 H          27.0067  -21.1989    1.0404 H       1  UNL1        0.0310
    134 H          25.9143  -22.5084    0.5886 H       1  UNL1        0.0310
    135 H          -6.4976   -6.0281   -8.9386 H       1  UNL1        0.0279
    136 H          -7.4534   -5.4996  -10.3567 H       1  UNL1        0.0279
    137 H          -5.9084   -4.7741  -10.0269 H       1  UNL1        0.0279
    138 H          25.2236  -20.7606   -3.5415 H       1  UNL1        0.0274
    139 H          25.8875  -19.1578   -3.1410 H       1  UNL1        0.0274
    140 H          26.9745  -20.5006   -3.4339 H       1  UNL1        0.0274
    141 H          27.9166  -23.9955    0.0832 H       1  UNL1        0.0572
    142 H          -6.9721   -0.3862   -8.2868 H       1  UNL1        0.2923
    143 H          -8.7218   -6.3235   -8.9069 H       1  UNL1        0.2923
    144 H          30.9241  -23.6404    1.7303 H       1  UNL1        0.0274
    145 H          29.8406  -24.5584    2.8049 H       1  UNL1        0.0274
    146 H          29.8357  -24.8568    1.0587 H       1  UNL1        0.0274
    147 H          29.1611  -20.9164    2.0801 H       1  UNL1        0.0274
    148 H          28.0570  -21.7538    3.2053 H       1  UNL1        0.0274
    149 H          29.7993  -21.9859    3.3308 H       1  UNL1        0.0274
    150 H         -11.6248   -1.7314   -6.2781 H       1  UNL1        0.0660
    151 H         -10.6872   -2.2743   -4.8235 H       1  UNL1        0.0660
    152 H         -11.0203   -0.5660   -5.1041 H       1  UNL1        0.0660
    153 H         -11.5617   -5.4807   -7.7456 H       1  UNL1        0.0660
    154 H         -10.6740   -6.0040   -6.2515 H       1  UNL1        0.0660
    155 H         -12.2341   -5.1888   -6.1472 H       1  UNL1        0.0660
@<TRIPOS>BOND
     1     1    51    1
     2     1   142    1
     3     2    54    1
     4     2    62    1
     5     3    55    1
     6     3    63    1
     7     4    52    1
     8     4   143    1
     9     5     9    1
    10     5    16    1
    11     5    64    1
    12     5    65    1
    13     6    10    1
    14     6    15    1
    15     6    66    1
    16     6    67    1
    17     7    11    1
    18     7    19    1
    19     7    68    1
    20     7    69    1
    21     8    13    1
    22     8    18    1
    23     8    70    1
    24     8    71    1
    25     9    25    1
    26     9    72    1
    27     9    73    1
    28    10    27    1
    29    10    74    1
    30    10    75    1
    31    11    26    1
    32    11    76    1
    33    11    77    1
    34    12    14    1
    35    12    22    1
    36    12    78    1
    37    12    79    1
    38    13    29    1
    39    13    80    1
    40    13    81    1
    41    14    28    1
    42    14    82    1
    43    14    83    1
    44    15    25    2
    45    15    39    1
    46    16    26    2
    47    16    40    1
    48    17    20    1
    49    17    21    1
    50    17    84    1
    51    17    85    1
    52    18    27    2
    53    18    41    1
    54    19    28    2
    55    19    42    1
    56    20    34    1
    57    20    86    1
    58    20    87    1
    59    21    29    2
    60    21    43    1
    61    22    31    2
    62    22    44    1
    63    23    24    1
    64    23    31    1
    65    23    88    1
    66    23    89    1
    67    24    33    1
    68    24    90    1
    69    24    91    1
    70    25    92    1
    71    26    93    1
    72    27    94    1
    73    28    95    1
    74    29    96    1
    75    30    32    1
    76    30    35    1
    77    30    97    1
    78    30    98    1
    79    31    99    1
    80    32    34    2
    81    32    49    1
    82    33    38    2
    83    33    50    1
    84    34   100    1
    85    35    45    1
    86    35   101    1
    87    35   102    1
    88    36    37    1
    89    36    38    1
    90    36   103    1
    91    36   104    1
    92    37    46   ar
    93    37    51   ar
    94    38   105    1
    95    39   106    1
    96    39   107    1
    97    39   108    1
    98    40   109    1
    99    40   110    1
   100    40   111    1
   101    41   112    1
   102    41   113    1
   103    41   114    1
   104    42   115    1
   105    42   116    1
   106    42   117    1
   107    43   118    1
   108    43   119    1
   109    43   120    1
   110    44   121    1
   111    44   122    1
   112    44   123    1
   113    45    47    2
   114    45   124    1
   115    46    52   ar
   116    46    56    1
   117    47    48    1
   118    47    57    1
   119    48    53    1
   120    48   125    1
   121    48   126    1
   122    49   127    1
   123    49   128    1
   124    49   129    1
   125    50   130    1
   126    50   131    1
   127    50   132    1
   128    51    54   ar
   129    52    55   ar
   130    53    58    1
   131    53   133    1
   132    53   134    1
   133    54    55   ar
   134    56   135    1
   135    56   136    1
   136    56   137    1
   137    57   138    1
   138    57   139    1
   139    57   140    1
   140    58    59    2
   141    58   141    1
   142    59    60    1
   143    59    61    1
   144    60   144    1
   145    60   145    1
   146    60   146    1
   147    61   147    1
   148    61   148    1
   149    61   149    1
   150    62   150    1
   151    62   151    1
   152    62   152    1
   153    63   153    1
   154    63   154    1
   155    63   155    1
