@<TRIPOS>MOLECULE
ubiquinone_q1
 36 36 0 0 0
SMALL
GASTEIGER

@<TRIPOS>ATOM
      1 O           1.9441   -2.2408   -0.2403 O.2     1  UNL1       -0.4883
      2 O           3.4938    0.0531   -0.5376 O.2     1  UNL1       -0.4883
      3 O          -0.6635   -1.9120    0.5621 O.2     1  UNL1       -0.2836
      4 O           2.3217    2.4512   -0.0294 O.2     1  UNL1       -0.2836
      5 C          -0.5690    0.4626    0.6836 C.2     1  UNL1        0.0135
      6 C          -2.0235    0.4543    1.0706 C.3     1  UNL1       -0.0051
      7 C           0.1918    1.5651    0.5515 C.2     1  UNL1        0.0072
      8 C           0.0073   -0.8919    0.4254 C.2     1  UNL1        0.2278
      9 C           1.6175    1.4551    0.1169 C.2     1  UNL1        0.2273
     10 C           1.4219   -0.9857    0.0020 C.2     1  UNL1        0.2128
     11 C           2.1722    0.1081   -0.1422 C.2     1  UNL1        0.2128
     12 C          -2.9103    0.6564   -0.1168 C.2     1  UNL1       -0.0808
     13 C          -0.2651    2.9725    0.8270 C.3     1  UNL1       -0.0356
     14 C          -3.8890   -0.1553   -0.5618 C.2     1  UNL1       -0.0793
     15 C          -4.7486    0.1045   -1.7664 C.3     1  UNL1       -0.0440
     16 C          -4.2068   -1.4357    0.1641 C.3     1  UNL1       -0.0440
     17 C           2.5065   -2.7850    0.9374 C.3     1  UNL1        0.0791
     18 C           3.5988    0.1235   -1.9460 C.3     1  UNL1        0.0791
     19 H          -2.2596   -0.4336    1.6613 H       1  UNL1        0.0357
     20 H          -2.2254    1.2691    1.7769 H       1  UNL1        0.0357
     21 H          -2.7426    1.5787   -0.6727 H       1  UNL1        0.0575
     22 H           0.2988    3.3944    1.6658 H       1  UNL1        0.0279
     23 H          -1.3261    3.0531    1.0716 H       1  UNL1        0.0279
     24 H          -0.0984    3.6031   -0.0534 H       1  UNL1        0.0279
     25 H          -5.8047    0.1405   -1.4805 H       1  UNL1        0.0274
     26 H          -4.4979    1.0586   -2.2417 H       1  UNL1        0.0274
     27 H          -4.6129   -0.6859   -2.5115 H       1  UNL1        0.0274
     28 H          -4.4329   -2.2268   -0.5606 H       1  UNL1        0.0274
     29 H          -5.0912   -1.2979    0.7948 H       1  UNL1        0.0274
     30 H          -3.3980   -1.8290    0.7803 H       1  UNL1        0.0274
     31 H           2.8858   -3.7843    0.7029 H       1  UNL1        0.0660
     32 H           1.7565   -2.8879    1.7294 H       1  UNL1        0.0660
     33 H           3.3486   -2.1823    1.2950 H       1  UNL1        0.0660
     34 H           3.1807    1.0588   -2.3342 H       1  UNL1        0.0660
     35 H           3.1116   -0.7321   -2.4265 H       1  UNL1        0.0660
     36 H           4.6604    0.0959   -2.2097 H       1  UNL1        0.0660
@<TRIPOS>BOND
     1     1    10    1
     2     1    17    1
     3     2    11    1
     4     2    18    1
     5     3     8    2
     6     4     9    2
     7     5     6    1
     8     5     7    2
     9     5     8    1
    10     6    12    1
    11     6    19    1
    12     6    20    1
    13     7     9    1
    14     7    13    1
    15     8    10    1
    16     9    11    1
    17    10    11    2
    18    12    14    2
    19    12    21    1
    20    13    22    1
    21    13    23    1
    22    13    24    1
    23    14    15    1
    24    14    16    1
    25    15    25    1
    26    15    26    1
    27    15    27    1
    28    16    28    1
    29    16    29    1
    30    16    30    1
    31    17    31    1
    32    17    32    1
    33    17    33    1
    34    18    34    1
    35    18    35    1
    36    18    36    1
