@<TRIPOS>MOLECULE
30976
 17 18 0 0 0
SMALL
GASTEIGER

@<TRIPOS>ATOM
      1 N          -2.0512   -0.6857   -0.0001 N.ar    1  UNL1       -0.3404
      2 N          -1.7382    1.5212    0.0000 N.ar    1  UNL1       -0.2164
      3 N           0.6922    1.4625    0.0000 N.ar    1  UNL1       -0.1933
      4 N           1.6250   -0.7918    0.0001 N.ar    1  UNL1       -0.1979
      5 N           0.2353   -2.7455    0.0000 N.pl3   1  UNL1       -0.3413
      6 N           3.0038    1.1017   -0.0002 N.pl3   1  UNL1       -0.3274
      7 C          -0.6976   -0.5033    0.0001 C.ar    1  UNL1        0.1252
      8 C          -0.5285    0.8748    0.0002 C.ar    1  UNL1        0.1843
      9 C           0.3935   -1.3497    0.0000 C.ar    1  UNL1        0.1470
     10 C          -2.6317    0.5551   -0.0001 C.ar    1  UNL1        0.0963
     11 C           1.6974    0.5607    0.0001 C.ar    1  UNL1        0.2163
     12 H          -2.5387   -1.5719   -0.0002 H       1  UNL1        0.1669
     13 H          -3.7048    0.6829   -0.0001 H       1  UNL1        0.1027
     14 H           1.0575   -3.3337    0.0004 H       1  UNL1        0.1438
     15 H          -0.6868   -3.1597    0.0004 H       1  UNL1        0.1438
     16 H           3.1257    2.1050   -0.0001 H       1  UNL1        0.1452
     17 H           3.7992    0.4783    0.0000 H       1  UNL1        0.1452
@<TRIPOS>BOND
     1     1     7   ar
     2     1    10   ar
     3     1    12    1
     4     2     8   ar
     5     2    10   ar
     6     3     8   ar
     7     3    11   ar
     8     4     9   ar
     9     4    11   ar
    10     5     9    1
    11     5    14    1
    12     5    15    1
    13     6    11    1
    14     6    16    1
    15     6    17    1
    16     7     8   ar
    17     7     9   ar
    18    10    13    1
