@<TRIPOS>MOLECULE
9955
 15 16 0 0 0
SMALL
GASTEIGER

@<TRIPOS>ATOM
      1 N           2.0595   -0.8900    0.0000 N.ar    1  UNL1       -0.3419
      2 N           1.6708    1.3048    0.0001 N.ar    1  UNL1       -0.2164
      3 N          -0.7561    1.1626    0.0000 N.ar    1  UNL1       -0.1934
      4 N          -1.6110   -1.1222    0.0001 N.ar    1  UNL1       -0.2209
      5 N          -3.0539    0.7225    0.0000 N.pl3   1  UNL1       -0.3274
      6 C           0.7004   -0.7542   -0.0001 C.ar    1  UNL1        0.1035
      7 C           0.4841    0.6172    0.0000 C.ar    1  UNL1        0.1824
      8 C          -0.3611   -1.6377    0.0000 C.ar    1  UNL1        0.0581
      9 C           2.5970    0.3701    0.0000 C.ar    1  UNL1        0.0962
     10 C          -1.7297    0.2269   -0.0001 C.ar    1  UNL1        0.2146
     11 H           2.5768   -1.7591    0.0000 H       1  UNL1        0.1669
     12 H          -0.2570   -2.7135    0.0001 H       1  UNL1        0.0853
     13 H           3.6651    0.5346    0.0000 H       1  UNL1        0.1027
     14 H          -3.2103    1.7209   -0.0005 H       1  UNL1        0.1452
     15 H          -3.8275    0.0721   -0.0002 H       1  UNL1        0.1452
@<TRIPOS>BOND
     1     1     6   ar
     2     1     9   ar
     3     1    11    1
     4     2     7   ar
     5     2     9   ar
     6     3     7   ar
     7     3    10   ar
     8     4     8   ar
     9     4    10   ar
    10     5    10    1
    11     5    14    1
    12     5    15    1
    13     6     7   ar
    14     6     8   ar
    15     8    12    1
    16     9    13    1
