@<TRIPOS>MOLECULE
190
 15 16 0 0 0
SMALL
GASTEIGER

@<TRIPOS>ATOM
      1 N          -1.1990   -1.3997    0.0000 N.ar    1  UNL1       -0.3404
      2 N          -2.0752    0.6499    0.0000 N.ar    1  UNL1       -0.2164
      3 N           0.0337    1.8594   -0.0001 N.ar    1  UNL1       -0.2144
      4 N           1.9998    0.4150    0.0000 N.ar    1  UNL1       -0.2189
      5 N           1.8241   -1.9760    0.0000 N.pl3   1  UNL1       -0.3414
      6 C          -0.1359   -0.5421    0.0001 C.ar    1  UNL1        0.1251
      7 C          -0.7056    0.7241    0.0001 C.ar    1  UNL1        0.1825
      8 C           1.2359   -0.7004    0.0000 C.ar    1  UNL1        0.1451
      9 C          -2.3386   -0.6394    0.0000 C.ar    1  UNL1        0.0963
     10 C           1.3607    1.6092    0.0000 C.ar    1  UNL1        0.1205
     11 H          -1.1566   -2.4103   -0.0002 H       1  UNL1        0.1669
     12 H          -3.3225   -1.0864   -0.0001 H       1  UNL1        0.1027
     13 H           2.0034    2.4831   -0.0001 H       1  UNL1        0.1048
     14 H           2.8322   -2.0528    0.0003 H       1  UNL1        0.1438
     15 H           1.2503   -2.8082    0.0004 H       1  UNL1        0.1438
@<TRIPOS>BOND
     1     1     6   ar
     2     1     9   ar
     3     1    11    1
     4     2     7   ar
     5     2     9   ar
     6     3     7   ar
     7     3    10   ar
     8     4     8   ar
     9     4    10   ar
    10     5     8    1
    11     5    14    1
    12     5    15    1
    13     6     7   ar
    14     6     8   ar
    15     9    12    1
    16    10    13    1
