@<TRIPOS>MOLECULE
597
 13 13 0 0 0
SMALL
GASTEIGER

@<TRIPOS>ATOM
      1 O           2.2134    1.1188    0.0001 O.2     1  UNL1       -0.2447
      2 N          -0.0595    0.9816    0.0001 N.ar    1  UNL1       -0.2947
      3 N          -2.4422    0.9214    0.0001 N.pl3   1  UNL1       -0.3445
      4 N           1.2935   -0.9744    0.0000 N.ar    1  UNL1       -0.2014
      5 C          -1.2406    0.2676   -0.0001 C.ar    1  UNL1        0.0988
      6 C          -1.1643   -1.0726   -0.0002 C.ar    1  UNL1       -0.0056
      7 C           1.2088    0.4056   -0.0003 C.ar    1  UNL1        0.3471
      8 C           0.1908   -1.6478    0.0003 C.ar    1  UNL1        0.0362
      9 H          -0.1331    1.9946    0.0003 H       1  UNL1        0.1716
     10 H          -2.0223   -1.7317   -0.0003 H       1  UNL1        0.0666
     11 H           0.2351   -2.7487    0.0005 H       1  UNL1        0.0832
     12 H          -3.3089    0.3984    0.0003 H       1  UNL1        0.1437
     13 H          -2.4533    1.9332    0.0006 H       1  UNL1        0.1437
@<TRIPOS>BOND
     1     1     7    2
     2     2     5   ar
     3     2     7   ar
     4     2     9    1
     5     3     5    1
     6     3    12    1
     7     3    13    1
     8     4     7   ar
     9     4     8   ar
    10     5     6   ar
    11     6     8   ar
    12     6    10    1
    13     8    11    1
