@<TRIPOS>MOLECULE
135398634
 16 17 0 0 0
SMALL
GASTEIGER

@<TRIPOS>ATOM
      1 O           0.1921    2.6659   -0.0004 O.2     1  UNL1       -0.2654
      2 N          -2.0715    0.6588    0.0006 N.ar    1  UNL1       -0.3389
      3 N           1.5740    0.8031    0.0001 N.ar    1  UNL1       -0.2935
      4 N           0.7566   -1.4536   -0.0003 N.ar    1  UNL1       -0.1947
      5 N          -1.7194   -1.5432   -0.0006 N.ar    1  UNL1       -0.2163
      6 N           3.0549   -1.0100    0.0005 N.pl3   1  UNL1       -0.3289
      7 C          -0.7180    0.4885   -0.0001 C.ar    1  UNL1        0.1503
      8 C          -0.5245   -0.8731   -0.0004 C.ar    1  UNL1        0.1863
      9 C           0.3383    1.4486   -0.0001 C.ar    1  UNL1        0.2783
     10 C           1.7483   -0.5924    0.0000 C.ar    1  UNL1        0.1950
     11 C          -2.6308   -0.5926    0.0005 C.ar    1  UNL1        0.0963
     12 H          -2.5706    1.5386    0.0012 H       1  UNL1        0.1670
     13 H           2.4078    1.3835    0.0003 H       1  UNL1        0.1716
     14 H          -3.7015   -0.7392    0.0010 H       1  UNL1        0.1027
     15 H           3.2905   -1.9965    0.0006 H       1  UNL1        0.1451
     16 H           3.8223   -0.3471    0.0008 H       1  UNL1        0.1451
@<TRIPOS>BOND
     1     1     9    2
     2     2     7   ar
     3     2    11   ar
     4     2    12    1
     5     3     9   ar
     6     3    10   ar
     7     3    13    1
     8     4     8   ar
     9     4    10   ar
    10     5     8   ar
    11     5    11   ar
    12     6    10    1
    13     6    15    1
    14     6    16    1
    15     7     8   ar
    16     7     9   ar
    17    11    14    1
