@<TRIPOS>MOLECULE
135398638
 14 15 0 0 0
SMALL
GASTEIGER

@<TRIPOS>ATOM
      1 O          -1.7431    1.9477    0.0003 O.2     1  UNL1       -0.2655
      2 N           1.2295    1.3797   -0.0003 N.ar    1  UNL1       -0.3389
      3 N          -1.9828   -0.3588   -0.0002 N.ar    1  UNL1       -0.3116
      4 N           2.0574   -0.6919    0.0000 N.ar    1  UNL1       -0.2164
      5 N          -0.1171   -1.8864    0.0002 N.ar    1  UNL1       -0.2163
      6 C           0.1541    0.5399   -0.0002 C.ar    1  UNL1        0.1501
      7 C           0.6883   -0.7301   -0.0001 C.ar    1  UNL1        0.1844
      8 C          -1.2485    0.8258   -0.0001 C.ar    1  UNL1        0.2770
      9 C           2.3514    0.5921    0.0003 C.ar    1  UNL1        0.0963
     10 C          -1.3892   -1.6180    0.0000 C.ar    1  UNL1        0.0985
     11 H           1.2071    2.3910   -0.0002 H       1  UNL1        0.1670
     12 H          -2.9968   -0.2970   -0.0001 H       1  UNL1        0.1698
     13 H           3.3457    1.0157    0.0006 H       1  UNL1        0.1027
     14 H          -2.1328   -2.4305    0.0001 H       1  UNL1        0.1028
@<TRIPOS>BOND
     1     1     8    2
     2     2     6   ar
     3     2     9   ar
     4     2    11    1
     5     3     8   ar
     6     3    10   ar
     7     3    12    1
     8     4     7   ar
     9     4     9   ar
    10     5     7   ar
    11     5    10   ar
    12     6     7   ar
    13     6     8   ar
    14     9    13    1
    15    10    14    1
