@<TRIPOS>MOLECULE
1043
 14 15 0 0 0
SMALL
GASTEIGER

@<TRIPOS>ATOM
      1 N           1.1786    1.3953    0.0000 N.ar    1  UNL1       -0.2488
      2 N           1.1669   -1.3720    0.0000 N.ar    1  UNL1       -0.2328
      3 N          -1.1485   -1.3770    0.0000 N.ar    1  UNL1       -0.2145
      4 N          -2.3861    0.6772    0.0001 N.ar    1  UNL1       -0.2414
      5 C           0.0290    0.6936   -0.0001 C.ar    1  UNL1        0.1259
      6 C           0.0079   -0.7028   -0.0001 C.ar    1  UNL1        0.1813
      7 C          -1.2035    1.3183   -0.0001 C.ar    1  UNL1        0.0583
      8 C           2.3241    0.6961    0.0001 C.ar    1  UNL1        0.0465
      9 C           2.3176   -0.6717    0.0000 C.ar    1  UNL1        0.0481
     10 C          -2.2860   -0.6570    0.0001 C.ar    1  UNL1        0.1184
     11 H          -1.2776    2.4022   -0.0001 H       1  UNL1        0.0853
     12 H           3.2406    1.2715    0.0002 H       1  UNL1        0.0845
     13 H           3.2307   -1.2534    0.0001 H       1  UNL1        0.0846
     14 H          -3.2131   -1.2166    0.0002 H       1  UNL1        0.1047
@<TRIPOS>BOND
     1     1     5   ar
     2     1     8   ar
     3     2     6   ar
     4     2     9   ar
     5     3     6   ar
     6     3    10   ar
     7     4     7   ar
     8     4    10   ar
     9     5     6   ar
    10     5     7   ar
    11     7    11    1
    12     8     9   ar
    13     8    12    1
    14     9    13    1
    15    10    14    1
