@<TRIPOS>MOLECULE
135398660
 17 18 0 0 0
SMALL
GASTEIGER

@<TRIPOS>ATOM
      1 O          -0.5175   -2.6461    0.0004 O.2     1  UNL1       -0.2654
      2 N          -1.8671   -0.7615   -0.0002 N.ar    1  UNL1       -0.2934
      3 N          -0.9619    1.4150    0.0001 N.ar    1  UNL1       -0.1947
      4 N           1.7293   -1.1140   -0.0001 N.ar    1  UNL1       -0.2451
      5 N           1.3674    1.6733    0.0001 N.ar    1  UNL1       -0.2327
      6 N          -3.2861    1.0984    0.0001 N.pl3   1  UNL1       -0.3289
      7 C           0.5117   -0.5378   -0.0001 C.ar    1  UNL1        0.1721
      8 C           0.3142    0.8302    0.0000 C.ar    1  UNL1        0.1870
      9 C          -0.6527   -1.4291   -0.0001 C.ar    1  UNL1        0.2803
     10 C          -2.0007    0.6249   -0.0001 C.ar    1  UNL1        0.1950
     11 C           2.7705   -0.2602   -0.0001 C.ar    1  UNL1        0.0467
     12 C           2.5930    1.1070    0.0001 C.ar    1  UNL1        0.0481
     13 H          -2.7147   -1.3212   -0.0002 H       1  UNL1        0.1716
     14 H           3.7559   -0.7092   -0.0001 H       1  UNL1        0.0845
     15 H           3.4321    1.7918    0.0002 H       1  UNL1        0.0846
     16 H          -3.4790    2.0940    0.0003 H       1  UNL1        0.1451
     17 H          -4.0816    0.4694    0.0001 H       1  UNL1        0.1451
@<TRIPOS>BOND
     1     1     9    2
     2     2     9   ar
     3     2    10   ar
     4     2    13    1
     5     3     8   ar
     6     3    10   ar
     7     4     7   ar
     8     4    11   ar
     9     5     8   ar
    10     5    12   ar
    11     6    10    1
    12     6    16    1
    13     6    17    1
    14     7     8   ar
    15     7     9   ar
    16    11    12   ar
    17    11    14    1
    18    12    15    1
