@<TRIPOS>MOLECULE
104028
 11 11 0 0 0
SMALL
GASTEIGER

@<TRIPOS>ATOM
      1 O          -2.2790    0.0625    0.0023 O.2     1  UNL1       -0.2733
      2 N          -0.3548   -1.1740   -0.0015 N.am    1  UNL1       -0.1687
      3 N           1.7720   -0.0874    0.0019 N.2     1  UNL1       -0.2500
      4 C          -0.2516    1.2831   -0.0031 C.3     1  UNL1        0.0615
      5 C          -1.0498    0.0111    0.0001 C.2     1  UNL1        0.2427
      6 C           1.2229    1.0794    0.0011 C.2     1  UNL1        0.0154
      7 C           0.9403   -1.1748   -0.0008 C.2     1  UNL1        0.1084
      8 H          -0.5136    1.8692    0.8833 H       1  UNL1        0.0417
      9 H          -0.5095    1.8626   -0.8950 H       1  UNL1        0.0417
     10 H           1.8611    1.9773    0.0025 H       1  UNL1        0.0787
     11 H           1.4463   -2.1542   -0.0023 H       1  UNL1        0.1019
@<TRIPOS>BOND
     1     1     5    2
     2     2     5    1
     3     2     7    2
     4     3     6    2
     5     3     7    1
     6     4     5    1
     7     4     6    1
     8     4     8    1
     9     4     9    1
    10     6    10    1
    11     7    11    1
