@<TRIPOS>MOLECULE
582898
 15 16 0 0 0
SMALL
GASTEIGER

@<TRIPOS>ATOM
      1 N          -1.1610    1.3752    0.0000 N.ar    1  UNL1       -0.2356
      2 N           1.1545    1.3763    0.0001 N.ar    1  UNL1       -0.2161
      3 N           2.4138   -0.6764   -0.0001 N.ar    1  UNL1       -0.2430
      4 C           0.0015   -0.6966    0.0001 C.ar    1  UNL1        0.0373
      5 C          -0.0017    0.7031    0.0000 C.ar    1  UNL1        0.1628
      6 C          -1.2141   -1.3964    0.0000 C.ar    1  UNL1       -0.0482
      7 C           1.2410   -1.3317    0.0000 C.ar    1  UNL1        0.0400
      8 C          -2.4066   -0.6945    0.0000 C.ar    1  UNL1       -0.0428
      9 C          -2.3252    0.6819   -0.0001 C.ar    1  UNL1        0.0300
     10 C           2.2977    0.6590    0.0000 C.ar    1  UNL1        0.1183
     11 H          -1.2315   -2.4831    0.0000 H       1  UNL1        0.0626
     12 H           1.3243   -2.4145    0.0000 H       1  UNL1        0.0837
     13 H          -3.3621   -1.2047   -0.0001 H       1  UNL1        0.0633
     14 H          -3.2223    1.2924   -0.0001 H       1  UNL1        0.0830
     15 H           3.2205    1.2264    0.0000 H       1  UNL1        0.1047
@<TRIPOS>BOND
     1     1     5   ar
     2     1     9   ar
     3     2     5   ar
     4     2    10   ar
     5     3     7   ar
     6     3    10   ar
     7     4     5   ar
     8     4     6   ar
     9     4     7   ar
    10     6     8   ar
    11     6    11    1
    12     7    12    1
    13     8     9   ar
    14     8    13    1
    15     9    14    1
    16    10    15    1
