@<TRIPOS>MOLECULE
261591
 14 15 0 0 0
SMALL
GASTEIGER

@<TRIPOS>ATOM
      1 N          -1.5171   -1.0991    0.0000 N.ar    1  UNL1       -0.3458
      2 N           0.8707   -1.4337    0.0000 N.ar    1  UNL1       -0.2180
      3 N           2.1228    0.6543    0.0000 N.ar    1  UNL1       -0.2430
      4 C          -0.2494    0.7375   -0.0001 C.ar    1  UNL1        0.0367
      5 C          -0.2228   -0.6517    0.0000 C.ar    1  UNL1        0.1413
      6 C          -1.6139    1.1249    0.0002 C.ar    1  UNL1       -0.0336
      7 C          -2.3720   -0.0266   -0.0001 C.ar    1  UNL1        0.0042
      8 C           0.9847    1.3862   -0.0001 C.ar    1  UNL1        0.0400
      9 C           1.9969   -0.6919    0.0001 C.ar    1  UNL1        0.1182
     10 H          -2.0056    2.1329    0.0003 H       1  UNL1        0.0639
     11 H          -1.7985   -2.0697   -0.0001 H       1  UNL1        0.1668
     12 H          -3.4422   -0.1778   -0.0001 H       1  UNL1        0.0807
     13 H           1.0984    2.4630    0.0000 H       1  UNL1        0.0837
     14 H           2.9274   -1.2493    0.0001 H       1  UNL1        0.1047
@<TRIPOS>BOND
     1     1     5   ar
     2     1     7   ar
     3     1    11    1
     4     2     5   ar
     5     2     9   ar
     6     3     8   ar
     7     3     9   ar
     8     4     5   ar
     9     4     6   ar
    10     4     8   ar
    11     6     7   ar
    12     6    10    1
    13     7    12    1
    14     8    13    1
    15     9    14    1
