@<TRIPOS>MOLECULE
1135
 15 15 0 0 0
SMALL
GASTEIGER

@<TRIPOS>ATOM
      1 O          -1.5193    1.8067   -0.0009 O.2     1  UNL1       -0.2674
      2 O           2.8394    0.2913   -0.0007 O.2     1  UNL1       -0.2467
      3 N           0.6643    1.0623    0.0011 N.ar    1  UNL1       -0.2749
      4 N           1.1148   -1.2316   -0.0002 N.ar    1  UNL1       -0.3141
      5 C          -1.1612   -0.5432    0.0002 C.ar    1  UNL1        0.0299
      6 C          -0.7129    0.8802    0.0004 C.ar    1  UNL1        0.2568
      7 C          -0.2260   -1.5013   -0.0001 C.ar    1  UNL1        0.0144
      8 C          -2.6300   -0.8189   -0.0001 C.3     1  UNL1       -0.0332
      9 C           1.6310    0.0545    0.0003 C.ar    1  UNL1        0.3267
     10 H          -0.4787   -2.5553   -0.0004 H       1  UNL1        0.0813
     11 H           1.0014    2.0209    0.0011 H       1  UNL1        0.1734
     12 H           1.7564   -2.0191   -0.0009 H       1  UNL1        0.1698
     13 H          -3.1004   -0.3860   -0.8889 H       1  UNL1        0.0280
     14 H          -3.1006   -0.3862    0.8887 H       1  UNL1        0.0280
     15 H          -2.8433   -1.8931   -0.0003 H       1  UNL1        0.0280
@<TRIPOS>BOND
     1     1     6    2
     2     2     9    2
     3     3     6   ar
     4     3     9   ar
     5     3    11    1
     6     4     7   ar
     7     4     9   ar
     8     4    12    1
     9     5     6   ar
    10     5     7   ar
    11     5     8    1
    12     7    10    1
    13     8    13    1
    14     8    14    1
    15     8    15    1
