@<TRIPOS>MOLECULE
123047
 9 9 0 0 0
SMALL
GASTEIGER

@<TRIPOS>ATOM
      1 N          -0.6898    1.1504   -0.0001 N.ar    1  UNL1       -0.1378
      2 N          -0.6938   -1.1482    0.0002 N.ar    1  UNL1       -0.1378
      3 N          -1.3277    0.0022   -0.0002 N.ar    1  UNL1       -0.0434
      4 C           1.3982   -0.0024   -0.0002 C.ar    1  UNL1       -0.0219
      5 C           0.6585    1.1458    0.0003 C.ar    1  UNL1        0.0531
      6 C           0.6545   -1.1479    0.0000 C.ar    1  UNL1        0.0531
      7 H           2.4786   -0.0043   -0.0004 H       1  UNL1        0.0649
      8 H           1.1279    2.1228    0.0004 H       1  UNL1        0.0849
      9 H           1.1207   -2.1264    0.0001 H       1  UNL1        0.0849
@<TRIPOS>BOND
     1     1     3   ar
     2     1     5   ar
     3     2     3   ar
     4     2     6   ar
     5     4     5   ar
     6     4     6   ar
     7     4     7    1
     8     5     8    1
     9     6     9    1
