@<TRIPOS>MOLECULE
64962
 12 13 0 0 0
SMALL
GASTEIGER

@<TRIPOS>ATOM
      1 N          -1.5041   -1.1915    0.0002 N.ar    1  UNL1       -0.1516
      2 N          -2.2171   -0.0563   -0.0003 N.ar    1  UNL1       -0.1941
      3 N          -1.5739    1.1182    0.0001 N.ar    1  UNL1       -0.1345
      4 N           0.8165    1.4880    0.0002 N.ar    1  UNL1       -0.2131
      5 N           2.0965   -0.6413   -0.0001 N.ar    1  UNL1       -0.2414
      6 C          -0.2408   -0.7339    0.0000 C.ar    1  UNL1        0.1492
      7 C          -0.3007    0.7129   -0.0001 C.ar    1  UNL1        0.2042
      8 C           0.9807   -1.4161    0.0001 C.ar    1  UNL1        0.0601
      9 C           1.9429    0.7200   -0.0001 C.ar    1  UNL1        0.1185
     10 H           1.1043   -2.4892    0.0003 H       1  UNL1        0.0853
     11 H          -3.2303   -0.0869   -0.0003 H       1  UNL1        0.2126
     12 H           2.8744    1.2790    0.0000 H       1  UNL1        0.1047
@<TRIPOS>BOND
     1     1     2   ar
     2     1     6   ar
     3     2     3   ar
     4     2    11    1
     5     3     7   ar
     6     4     7   ar
     7     4     9   ar
     8     5     8   ar
     9     5     9   ar
    10     6     7   ar
    11     6     8   ar
    12     8    10    1
    13     9    12    1
