@<TRIPOS>MOLECULE
1174
 12 12 0 0 0
SMALL
GASTEIGER

@<TRIPOS>ATOM
      1 O           2.3264    0.9651    0.0001 O.2     1  UNL1       -0.2467
      2 O          -2.2972    1.0232    0.0005 O.2     1  UNL1       -0.2677
      3 N           0.0180    1.0199   -0.0002 N.ar    1  UNL1       -0.2751
      4 N           1.1637   -1.0221    0.0001 N.ar    1  UNL1       -0.3143
      5 C           1.2524    0.3629    0.0000 C.ar    1  UNL1        0.3267
      6 C          -1.2315    0.4141   -0.0004 C.ar    1  UNL1        0.2539
      7 C          -0.0268   -1.6955    0.0002 C.ar    1  UNL1        0.0115
      8 C          -1.2049   -1.0676   -0.0002 C.ar    1  UNL1        0.0189
      9 H           0.0382    2.0357   -0.0001 H       1  UNL1        0.1734
     10 H           2.0187   -1.5702    0.0004 H       1  UNL1        0.1698
     11 H          -2.1443   -1.6063   -0.0002 H       1  UNL1        0.0686
     12 H           0.0469   -2.7761    0.0004 H       1  UNL1        0.0810
@<TRIPOS>BOND
     1     1     5    2
     2     2     6    2
     3     3     5   ar
     4     3     6   ar
     5     3     9    1
     6     4     5   ar
     7     4     7   ar
     8     4    10    1
     9     6     8   ar
    10     7     8   ar
    11     7    12    1
    12     8    11    1
