@<TRIPOS>MOLECULE
1188
 15 16 0 0 0
SMALL
GASTEIGER

@<TRIPOS>ATOM
      1 O          -0.2090   -2.6604    0.0001 O.2     1  UNL1       -0.2654
      2 O          -2.9954    1.0526    0.0006 O.2     1  UNL1       -0.2466
      3 N          -0.7173    1.4160   -0.0001 N.ar    1  UNL1       -0.2907
      4 N           2.0788   -0.6662    0.0003 N.ar    1  UNL1       -0.3389
      5 N          -1.5971   -0.7967   -0.0003 N.ar    1  UNL1       -0.2733
      6 N           1.7283    1.5418   -0.0001 N.ar    1  UNL1       -0.2181
      7 C           0.7253   -0.4947   -0.0002 C.ar    1  UNL1        0.1485
      8 C           0.5448    0.8645   -0.0003 C.ar    1  UNL1        0.1653
      9 C          -0.3471   -1.4413    0.0000 C.ar    1  UNL1        0.2796
     10 C          -1.8502    0.5965   -0.0002 C.ar    1  UNL1        0.3283
     11 C           2.6388    0.5879    0.0003 C.ar    1  UNL1        0.0963
     12 H          -0.8041    2.4268    0.0001 H       1  UNL1        0.1719
     13 H           2.5785   -1.5458    0.0006 H       1  UNL1        0.1670
     14 H          -2.4147   -1.4004   -0.0002 H       1  UNL1        0.1735
     15 H           3.7098    0.7326    0.0006 H       1  UNL1        0.1027
@<TRIPOS>BOND
     1     1     9    2
     2     2    10    2
     3     3     8   ar
     4     3    10   ar
     5     3    12    1
     6     4     7   ar
     7     4    11   ar
     8     4    13    1
     9     5     9   ar
    10     5    10   ar
    11     5    14    1
    12     6     8   ar
    13     6    11   ar
    14     7     8   ar
    15     7     9   ar
    16    11    15    1
