@<TRIPOS>MOLECULE
5_aminolevulinic_acid
 18 17 0 0 0
SMALL
GASTEIGER

@<TRIPOS>ATOM
      1 O          -1.6165    1.3592   -0.0077 O.2     1  UNL1       -0.2960
      2 O           3.4256    0.8315    0.0239 O.3     1  UNL1       -0.4806
      3 O           2.6632   -1.3070    0.0032 O.2     1  UNL1       -0.2510
      4 N          -3.8695   -0.1251    0.0260 N.3     1  UNL1       -0.3238
      5 C          -0.0608   -0.4875   -0.0242 C.3     1  UNL1        0.0171
      6 C           1.0704    0.5375   -0.0203 C.3     1  UNL1        0.0515
      7 C          -1.4491    0.1405   -0.0072 C.2     1  UNL1        0.1473
      8 C          -2.6039   -0.8445    0.0015 C.3     1  UNL1        0.0524
      9 C           2.4406   -0.1045    0.0049 C.2     1  UNL1        0.3051
     10 H           0.0241   -1.1358    0.8556 H       1  UNL1        0.0347
     11 H           0.0136   -1.1182   -0.9176 H       1  UNL1        0.0347
     12 H           0.9816    1.1817    0.8620 H       1  UNL1        0.0382
     13 H           1.0034    1.1651   -0.9163 H       1  UNL1        0.0382
     14 H          -2.5495   -1.4663   -0.8966 H       1  UNL1        0.0500
     15 H          -2.5240   -1.4808    0.8874 H       1  UNL1        0.0500
     16 H          -3.9332    0.4897   -0.7843 H       1  UNL1        0.1186
     17 H          -3.9093    0.4762    0.8479 H       1  UNL1        0.1186
     18 H           4.3174    0.4230    0.0374 H       1  UNL1        0.2951
@<TRIPOS>BOND
     1     1     7    2
     2     2     9    1
     3     2    18    1
     4     3     9    2
     5     4     8    1
     6     4    16    1
     7     4    17    1
     8     5     6    1
     9     5     7    1
    10     5    10    1
    11     5    11    1
    12     6     9    1
    13     6    12    1
    14     6    13    1
    15     7     8    1
    16     8    14    1
    17     8    15    1
