@<TRIPOS>MOLECULE
bilirubin
 79 82 0 0 0
SMALL
GASTEIGER

@<TRIPOS>ATOM
      1 O          -7.0275    0.9543   -0.7859 O.3     1  UNL1       -0.4806
      2 O          -3.9070    0.4357   -3.4023 O.3     1  UNL1       -0.4806
      3 O          -7.1557    1.0062    1.4791 O.2     1  UNL1       -0.2510
      4 O          -4.4218    2.5676   -2.8195 O.2     1  UNL1       -0.2510
      5 O           0.6723   -3.4506   -2.8564 O.2     1  UNL1       -0.2698
      6 O           4.6658   -0.7776   -0.9725 O.2     1  UNL1       -0.2702
      7 N          -0.8494   -0.4773    1.7763 N.ar    1  UNL1       -0.3576
      8 N           0.5659    2.4834    1.3130 N.ar    1  UNL1       -0.3576
      9 N          -0.0404   -2.8788   -0.6962 N.am    1  UNL1       -0.2812
     10 N           3.3616    1.0645   -0.3360 N.am    1  UNL1       -0.2812
     11 C          -1.7588    1.8263    1.8657 C.3     1  UNL1        0.0284
     12 C          -1.9376    0.3158    1.8078 C.ar    1  UNL1        0.0256
     13 C          -0.7454    2.3582    0.9348 C.ar    1  UNL1        0.0256
     14 C          -3.0693   -0.4145    1.7811 C.ar    1  UNL1       -0.0225
     15 C          -0.8534    2.7991   -0.3657 C.ar    1  UNL1       -0.0225
     16 C          -2.6557   -1.7686    1.7292 C.ar    1  UNL1       -0.0223
     17 C           0.4386    3.2032   -0.7841 C.ar    1  UNL1       -0.0223
     18 C          -1.2784   -1.7781    1.7277 C.ar    1  UNL1        0.0444
     19 C           1.2678    2.9926    0.2692 C.ar    1  UNL1        0.0444
     20 C          -4.4623    0.0776    1.8027 C.3     1  UNL1       -0.0157
     21 C          -2.0902    2.8397   -1.1728 C.3     1  UNL1       -0.0157
     22 C          -3.5396   -2.9522    1.6846 C.3     1  UNL1       -0.0375
     23 C           0.7983    3.7463   -2.1106 C.3     1  UNL1       -0.0375
     24 C          -5.0679    0.3434    0.4097 C.3     1  UNL1        0.0488
     25 C          -2.3675    1.5569   -1.9825 C.3     1  UNL1        0.0488
     26 C          -0.3062   -2.7906    1.6900 C.2     1  UNL1       -0.0166
     27 C           2.6722    3.1967    0.4715 C.2     1  UNL1       -0.0163
     28 C           0.2615   -3.2944    0.5681 C.2     1  UNL1        0.0393
     29 C           3.6185    2.2979    0.1869 C.2     1  UNL1        0.0432
     30 C           1.2641   -4.3305    0.4272 C.2     1  UNL1       -0.0171
     31 C           5.0611    2.3935    0.3483 C.2     1  UNL1        0.0035
     32 C          -6.5076    0.8079    0.4612 C.2     1  UNL1        0.3050
     33 C          -3.6605    1.6119   -2.7675 C.2     1  UNL1        0.3050
     34 C           5.6306    1.2426   -0.0704 C.2     1  UNL1        0.0204
     35 C           1.5490   -4.5245   -0.8750 C.2     1  UNL1        0.0411
     36 C           0.6944   -3.5708   -1.6439 C.2     1  UNL1        0.2486
     37 C           4.5270    0.3481   -0.5274 C.2     1  UNL1        0.2446
     38 C           1.8439   -5.0303    1.6110 C.3     1  UNL1       -0.0372
     39 C           5.8017    3.5153    0.8659 C.2     1  UNL1       -0.0595
     40 C           7.0432    0.7884   -0.1351 C.3     1  UNL1       -0.0342
     41 C           2.4628   -5.4299   -1.4943 C.2     1  UNL1       -0.0564
     42 C           6.8515    3.3902    1.6782 C.2     1  UNL1       -0.0981
     43 C           2.6503   -6.6943   -1.0910 C.2     1  UNL1       -0.0980
     44 H          -2.7202    2.3176    1.6766 H       1  UNL1        0.0391
     45 H          -1.4941    2.0902    2.8987 H       1  UNL1        0.0391
     46 H           0.1174   -0.1794    1.7947 H       1  UNL1        0.1656
     47 H           0.9379    2.2329    2.2200 H       1  UNL1        0.1656
     48 H          -5.0979   -0.6456    2.3306 H       1  UNL1        0.0319
     49 H          -4.5274    0.9947    2.4027 H       1  UNL1        0.0319
     50 H          -2.9518    3.0497   -0.5268 H       1  UNL1        0.0319
     51 H          -2.0501    3.6905   -1.8658 H       1  UNL1        0.0319
     52 H          -2.9793   -3.8793    1.5272 H       1  UNL1        0.0278
     53 H          -4.0920   -3.0518    2.6247 H       1  UNL1        0.0278
     54 H          -4.2637   -2.8638    0.8681 H       1  UNL1        0.0278
     55 H           1.8772    3.8991   -2.2148 H       1  UNL1        0.0278
     56 H           0.3083    4.7117   -2.2744 H       1  UNL1        0.0278
     57 H           0.4847    3.0622   -2.9059 H       1  UNL1        0.0278
     58 H          -5.0212   -0.5680   -0.1969 H       1  UNL1        0.0381
     59 H          -4.4921    1.1286   -0.0856 H       1  UNL1        0.0381
     60 H          -2.4136    0.6952   -1.3075 H       1  UNL1        0.0381
     61 H          -1.5503    1.3888   -2.6935 H       1  UNL1        0.0381
     62 H          -0.0066   -3.1953    2.6539 H       1  UNL1        0.0657
     63 H           2.9541    4.1603    0.8889 H       1  UNL1        0.0657
     64 H          -0.7168   -2.1549   -0.9100 H       1  UNL1        0.1551
     65 H           2.4341    0.7193   -0.5544 H       1  UNL1        0.1551
     66 H           2.1402   -4.3075    2.3793 H       1  UNL1        0.0278
     67 H           1.1108   -5.7158    2.0483 H       1  UNL1        0.0278
     68 H           2.7468   -5.5979    1.3734 H       1  UNL1        0.0278
     69 H           5.4593    4.5086    0.5908 H       1  UNL1        0.0618
     70 H           7.2910    0.1816    0.7410 H       1  UNL1        0.0279
     71 H           7.2078    0.1752   -1.0279 H       1  UNL1        0.0279
     72 H           7.7487    1.6208   -0.2032 H       1  UNL1        0.0279
     73 H           3.0164   -5.0632   -2.3539 H       1  UNL1        0.0619
     74 H          -7.9650    1.2417   -0.7594 H       1  UNL1        0.2951
     75 H          -4.7520    0.4595   -3.9000 H       1  UNL1        0.2951
     76 H           7.3596    4.2786    2.0405 H       1  UNL1        0.0535
     77 H           7.2218    2.4366    2.0361 H       1  UNL1        0.0535
     78 H           3.3576   -7.3287   -1.6158 H       1  UNL1        0.0535
     79 H           2.1031   -7.1390   -0.2676 H       1  UNL1        0.0535
@<TRIPOS>BOND
     1     1    32    1
     2     1    74    1
     3     2    33    1
     4     2    75    1
     5     3    32    2
     6     4    33    2
     7     5    36    2
     8     6    37    2
     9     7    12   ar
    10     7    18   ar
    11     7    46    1
    12     8    13   ar
    13     8    19   ar
    14     8    47    1
    15     9    28    1
    16     9    36   am
    17     9    64    1
    18    10    29    1
    19    10    37   am
    20    10    65    1
    21    11    12    1
    22    11    13    1
    23    11    44    1
    24    11    45    1
    25    12    14   ar
    26    13    15   ar
    27    14    16   ar
    28    14    20    1
    29    15    17   ar
    30    15    21    1
    31    16    18   ar
    32    16    22    1
    33    17    19   ar
    34    17    23    1
    35    18    26    1
    36    19    27    1
    37    20    24    1
    38    20    48    1
    39    20    49    1
    40    21    25    1
    41    21    50    1
    42    21    51    1
    43    22    52    1
    44    22    53    1
    45    22    54    1
    46    23    55    1
    47    23    56    1
    48    23    57    1
    49    24    32    1
    50    24    58    1
    51    24    59    1
    52    25    33    1
    53    25    60    1
    54    25    61    1
    55    26    28    2
    56    26    62    1
    57    27    29    2
    58    27    63    1
    59    28    30    1
    60    29    31    1
    61    30    35    2
    62    30    38    1
    63    31    34    2
    64    31    39    1
    65    34    37    1
    66    34    40    1
    67    35    36    1
    68    35    41    1
    69    38    66    1
    70    38    67    1
    71    38    68    1
    72    39    42    2
    73    39    69    1
    74    40    70    1
    75    40    71    1
    76    40    72    1
    77    41    43    2
    78    41    73    1
    79    42    76    1
    80    42    77    1
    81    43    78    1
    82    43    79    1
