@<TRIPOS>MOLECULE
biliverdin
 77 80 0 0 0
SMALL
GASTEIGER

@<TRIPOS>ATOM
      1 O           1.1767    0.4643   -2.5321 O.3     1  UNL1       -0.4806
      2 O           7.9284    1.4955   -0.1947 O.3     1  UNL1       -0.4806
      3 O           3.3592    1.0419   -2.7612 O.2     1  UNL1       -0.2510
      4 O           7.3663    1.3882    2.0034 O.2     1  UNL1       -0.2510
      5 O          -5.2768    0.6396   -1.9351 O.2     1  UNL1       -0.2702
      6 O          -2.6903   -2.4146   -1.7150 O.2     1  UNL1       -0.2680
      7 N          -0.0727    1.8621    1.1389 N.ar    1  UNL1       -0.3545
      8 N           1.5416   -0.8181    0.4048 N.ar    1  UNL1       -0.3545
      9 N          -3.5855    1.5230   -0.5718 N.am    1  UNL1       -0.2812
     10 N          -0.5163   -2.4620   -0.8925 N.am    1  UNL1       -0.1764
     11 C           0.6837    3.0227   -0.5968 C.ar    1  UNL1       -0.0186
     12 C           1.0424    2.1295    0.3885 C.ar    1  UNL1        0.0451
     13 C           3.6804   -0.5636    1.1030 C.ar    1  UNL1       -0.0186
     14 C           2.4501    0.1528    0.7436 C.ar    1  UNL1        0.0451
     15 C          -0.6955    3.3023   -0.4327 C.ar    1  UNL1       -0.0220
     16 C           3.4543   -1.8922    0.9654 C.ar    1  UNL1       -0.0220
     17 C          -1.1376    2.5716    0.6479 C.ar    1  UNL1        0.0447
     18 C           2.2660    1.4777    0.7489 C.2     1  UNL1       -0.0145
     19 C           1.5724    3.5855   -1.6355 C.3     1  UNL1       -0.0154
     20 C           2.0702   -2.0797    0.5128 C.ar    1  UNL1        0.0447
     21 C           4.9227    0.1360    1.5349 C.3     1  UNL1       -0.0154
     22 C           1.6381    2.7593   -2.9355 C.3     1  UNL1        0.0488
     23 C          -1.5100    4.2108   -1.2673 C.3     1  UNL1       -0.0374
     24 C          -2.3771    2.4274    1.2922 C.2     1  UNL1       -0.0163
     25 C           5.8407    0.4775    0.3669 C.3     1  UNL1        0.0488
     26 C           4.3840   -3.0310    1.2065 C.3     1  UNL1       -0.0374
     27 C           1.4620   -3.2442    0.2608 C.2     1  UNL1       -0.0147
     28 C          -3.5067    1.9418    0.7240 C.2     1  UNL1        0.0432
     29 C           0.1021   -3.3503   -0.1801 C.2     1  UNL1        0.0625
     30 C          -4.8269    1.7563    1.3063 C.2     1  UNL1        0.0035
     31 C          -5.6547    1.2417    0.3713 C.2     1  UNL1        0.0204
     32 C          -0.7080   -4.5239    0.1660 C.2     1  UNL1       -0.0152
     33 C           2.1790    1.3606   -2.7297 C.2     1  UNL1        0.3050
     34 C           7.1097    1.1516    0.8297 C.2     1  UNL1        0.3050
     35 C          -4.8567    1.0788   -0.8790 C.2     1  UNL1        0.2446
     36 C          -1.8894   -4.2640   -0.4087 C.2     1  UNL1        0.0429
     37 C          -5.2276    2.0586    2.6564 C.2     1  UNL1       -0.0595
     38 C          -7.0887    0.8563    0.4048 C.3     1  UNL1       -0.0342
     39 C          -1.7862   -2.9483   -1.0909 C.2     1  UNL1        0.2680
     40 C          -0.2494   -5.6838    0.9674 C.3     1  UNL1       -0.0372
     41 C          -3.0801   -5.0539   -0.4123 C.2     1  UNL1       -0.0564
     42 C          -6.4039    2.6030    2.9689 C.2     1  UNL1       -0.0981
     43 C          -3.0902   -6.3871   -0.5428 C.2     1  UNL1       -0.0980
     44 H           3.0916    2.1428    0.9855 H       1  UNL1        0.0659
     45 H           2.5888    3.6821   -1.2313 H       1  UNL1        0.0319
     46 H           1.2590    4.6053   -1.8884 H       1  UNL1        0.0319
     47 H           5.4686   -0.5055    2.2395 H       1  UNL1        0.0319
     48 H           4.6867    1.0336    2.1192 H       1  UNL1        0.0319
     49 H          -0.1054    1.2371    1.9341 H       1  UNL1        0.1659
     50 H           0.5981   -0.6299    0.1025 H       1  UNL1        0.1659
     51 H           2.2865    3.2604   -3.6638 H       1  UNL1        0.0381
     52 H           0.6485    2.6905   -3.4034 H       1  UNL1        0.0381
     53 H          -1.6751    3.7729   -2.2571 H       1  UNL1        0.0278
     54 H          -2.4883    4.4172   -0.8225 H       1  UNL1        0.0278
     55 H          -1.0083    5.1751   -1.3980 H       1  UNL1        0.0278
     56 H          -2.4053    2.6979    2.3458 H       1  UNL1        0.0657
     57 H           6.1220   -0.4335   -0.1737 H       1  UNL1        0.0381
     58 H           5.3324    1.1569   -0.3268 H       1  UNL1        0.0381
     59 H           4.0009   -3.6809    2.0000 H       1  UNL1        0.0278
     60 H           5.3787   -2.6917    1.5098 H       1  UNL1        0.0278
     61 H           4.5085   -3.6270    0.2963 H       1  UNL1        0.0278
     62 H           2.0024   -4.1746    0.4076 H       1  UNL1        0.0657
     63 H          -2.8097    1.5317   -1.2235 H       1  UNL1        0.1551
     64 H          -4.5137    1.8486    3.4476 H       1  UNL1        0.0618
     65 H          -7.2599   -0.0357   -0.2076 H       1  UNL1        0.0279
     66 H          -7.4319    0.6048    1.4119 H       1  UNL1        0.0279
     67 H          -7.7116    1.6631    0.0070 H       1  UNL1        0.0279
     68 H           0.4143   -6.3208    0.3747 H       1  UNL1        0.0278
     69 H          -1.0768   -6.2956    1.3362 H       1  UNL1        0.0278
     70 H           0.2985   -5.3466    1.8537 H       1  UNL1        0.0278
     71 H          -4.0251   -4.5255   -0.3254 H       1  UNL1        0.0619
     72 H           1.5198   -0.4458   -2.4044 H       1  UNL1        0.2951
     73 H           8.7420    1.9434    0.1210 H       1  UNL1        0.2951
     74 H          -6.6395    2.8143    4.0073 H       1  UNL1        0.0535
     75 H          -7.1475    2.8856    2.2329 H       1  UNL1        0.0535
     76 H          -4.0345   -6.9220   -0.5461 H       1  UNL1        0.0535
     77 H          -2.1881   -6.9744   -0.6720 H       1  UNL1        0.0535
@<TRIPOS>BOND
     1     1    33    1
     2     1    72    1
     3     2    34    1
     4     2    73    1
     5     3    33    2
     6     4    34    2
     7     5    35    2
     8     6    39    2
     9     7    12   ar
    10     7    17   ar
    11     7    49    1
    12     8    14   ar
    13     8    20   ar
    14     8    50    1
    15     9    28    1
    16     9    35   am
    17     9    63    1
    18    10    29    2
    19    10    39    1
    20    11    12   ar
    21    11    15   ar
    22    11    19    1
    23    12    18    1
    24    13    14   ar
    25    13    16   ar
    26    13    21    1
    27    14    18    2
    28    15    17   ar
    29    15    23    1
    30    16    20   ar
    31    16    26    1
    32    17    24    1
    33    18    44    1
    34    19    22    1
    35    19    45    1
    36    19    46    1
    37    20    27    2
    38    21    25    1
    39    21    47    1
    40    21    48    1
    41    22    33    1
    42    22    51    1
    43    22    52    1
    44    23    53    1
    45    23    54    1
    46    23    55    1
    47    24    28    2
    48    24    56    1
    49    25    34    1
    50    25    57    1
    51    25    58    1
    52    26    59    1
    53    26    60    1
    54    26    61    1
    55    27    29    1
    56    27    62    1
    57    28    30    1
    58    29    32    1
    59    30    31    2
    60    30    37    1
    61    31    35    1
    62    31    38    1
    63    32    36    2
    64    32    40    1
    65    36    39    1
    66    36    41    1
    67    37    42    2
    68    37    64    1
    69    38    65    1
    70    38    66    1
    71    38    67    1
    72    40    68    1
    73    40    69    1
    74    40    70    1
    75    41    43    2
    76    41    71    1
    77    42    74    1
    78    42    75    1
    79    43    76    1
    80    43    77    1
