@<TRIPOS>MOLECULE
coproporphyrinogen_iii
 92 96 0 0 0
SMALL
GASTEIGER

@<TRIPOS>ATOM
      1 O           4.7366    5.5594   -0.5953 O.3     1  UNL1       -0.4806
      2 O           1.7685   -5.1042    2.9894 O.3     1  UNL1       -0.4806
      3 O          -0.3155   -6.1897   -0.2018 O.3     1  UNL1       -0.4806
      4 O          -8.1865    2.9290   -0.2447 O.3     1  UNL1       -0.4806
      5 O           6.4810    4.1932   -1.0852 O.2     1  UNL1       -0.2510
      6 O           3.0667   -4.0171    4.5002 O.2     1  UNL1       -0.2510
      7 O          -0.8894   -6.2739   -2.3956 O.2     1  UNL1       -0.2510
      8 O          -7.7633    0.7423    0.1895 O.2     1  UNL1       -0.2510
      9 N           2.3822   -0.8249   -1.0550 N.ar    1  UNL1       -0.3606
     10 N           1.6778    1.5902    1.5603 N.ar    1  UNL1       -0.3606
     11 N          -0.6920    0.2059   -2.6778 N.ar    1  UNL1       -0.3606
     12 N          -1.4570    2.1938    0.1089 N.ar    1  UNL1       -0.3606
     13 C           3.2853    0.0552   -0.5063 C.ar    1  UNL1        0.0254
     14 C           2.4065    0.4465    1.7898 C.ar    1  UNL1        0.0254
     15 C          -0.1770   -1.0613   -2.8224 C.ar    1  UNL1        0.0254
     16 C           3.5891    0.0738    0.9559 C.3     1  UNL1        0.0284
     17 C           2.2256   -0.5663   -2.3964 C.ar    1  UNL1        0.0251
     18 C          -2.6282    1.7076   -0.4218 C.ar    1  UNL1        0.0254
     19 C           1.2376   -1.3051   -3.2381 C.3     1  UNL1        0.0284
     20 C          -1.9851    0.1432   -2.2168 C.ar    1  UNL1        0.0251
     21 C           0.6056    1.6501    2.4179 C.ar    1  UNL1        0.0251
     22 C          -2.7554    1.3739   -1.8710 C.3     1  UNL1        0.0284
     23 C          -1.5713    2.3221    1.4727 C.ar    1  UNL1        0.0251
     24 C          -0.4157    2.7341    2.3229 C.3     1  UNL1        0.0284
     25 C           3.7724    0.8353   -1.5361 C.ar    1  UNL1       -0.0228
     26 C           1.8284   -0.1932    2.8687 C.ar    1  UNL1       -0.0228
     27 C          -1.1918   -1.9483   -2.5211 C.ar    1  UNL1       -0.0228
     28 C          -3.5342    1.6068    0.6151 C.ar    1  UNL1       -0.0228
     29 C           3.1069    0.4451   -2.7229 C.ar    1  UNL1       -0.0261
     30 C          -2.3280   -1.1920   -2.1428 C.ar    1  UNL1       -0.0261
     31 C           0.6987    0.5636    3.2647 C.ar    1  UNL1       -0.0261
     32 C          -2.8702    1.9928    1.8054 C.ar    1  UNL1       -0.0261
     33 C           4.7882    1.9027   -1.4168 C.3     1  UNL1       -0.0157
     34 C           2.3151   -1.4329    3.5107 C.3     1  UNL1       -0.0157
     35 C          -1.1137   -3.4226   -2.6008 C.3     1  UNL1       -0.0157
     36 C          -4.9489    1.1940    0.5013 C.3     1  UNL1       -0.0157
     37 C           3.3040    1.0310   -4.0658 C.3     1  UNL1       -0.0378
     38 C          -3.6491   -1.7344   -1.7626 C.3     1  UNL1       -0.0378
     39 C          -0.2025    0.2581    4.3953 C.3     1  UNL1       -0.0378
     40 C          -3.4681    2.0551    3.1557 C.3     1  UNL1       -0.0378
     41 C           4.2134    3.2988   -1.1044 C.3     1  UNL1        0.0488
     42 C           1.7152   -2.7301    2.9320 C.3     1  UNL1        0.0488
     43 C          -0.6675   -4.1103   -1.2948 C.3     1  UNL1        0.0488
     44 C          -5.9314    2.3501    0.2266 C.3     1  UNL1        0.0488
     45 C           5.2779    4.3636   -0.9477 C.2     1  UNL1        0.3050
     46 C           2.2614   -3.9841    3.5804 C.2     1  UNL1        0.3050
     47 C          -0.6356   -5.6204   -1.3936 C.2     1  UNL1        0.3050
     48 C          -7.3665    1.8933    0.0747 C.2     1  UNL1        0.3050
     49 H           3.9621   -0.9173    1.2402 H       1  UNL1        0.0391
     50 H           4.4002    0.7774    1.1754 H       1  UNL1        0.0391
     51 H           1.4741   -2.3743   -3.1813 H       1  UNL1        0.0391
     52 H           1.3450   -1.0279   -4.2933 H       1  UNL1        0.0391
     53 H          -3.8075    1.2465   -2.1489 H       1  UNL1        0.0391
     54 H          -2.3926    2.2209   -2.4680 H       1  UNL1        0.0391
     55 H          -0.7478    3.0216    3.3258 H       1  UNL1        0.0391
     56 H           0.0396    3.6368    1.8943 H       1  UNL1        0.0391
     57 H           1.8608   -1.5173   -0.5350 H       1  UNL1        0.1653
     58 H           1.8605    2.2548    0.8216 H       1  UNL1        0.1653
     59 H          -0.1738    1.0606   -2.8281 H       1  UNL1        0.1653
     60 H          -0.6115    2.3646   -0.4181 H       1  UNL1        0.1653
     61 H           5.3795    1.9598   -2.3401 H       1  UNL1        0.0319
     62 H           5.5184    1.6359   -0.6417 H       1  UNL1        0.0319
     63 H           3.4096   -1.4832    3.4406 H       1  UNL1        0.0319
     64 H           2.1097   -1.4003    4.5884 H       1  UNL1        0.0319
     65 H          -0.4247   -3.7138   -3.4048 H       1  UNL1        0.0319
     66 H          -2.0798   -3.8380   -2.9117 H       1  UNL1        0.0319
     67 H          -5.2587    0.6740    1.4174 H       1  UNL1        0.0319
     68 H          -5.0570    0.4442   -0.2910 H       1  UNL1        0.0319
     69 H           3.7045    2.0478   -4.0161 H       1  UNL1        0.0278
     70 H           2.3589    1.0908   -4.6154 H       1  UNL1        0.0278
     71 H           4.0005    0.4188   -4.6477 H       1  UNL1        0.0278
     72 H          -4.4585   -1.0816   -2.1043 H       1  UNL1        0.0278
     73 H          -3.8371   -2.7191   -2.1986 H       1  UNL1        0.0278
     74 H          -3.7197   -1.8276   -0.6740 H       1  UNL1        0.0278
     75 H          -0.7968   -0.6353    4.1771 H       1  UNL1        0.0278
     76 H          -0.8956    1.0764    4.6085 H       1  UNL1        0.0278
     77 H           0.3691    0.0754    5.3110 H       1  UNL1        0.0278
     78 H          -3.3804    1.0840    3.6534 H       1  UNL1        0.0278
     79 H          -2.9799    2.8064    3.7835 H       1  UNL1        0.0278
     80 H          -4.5292    2.3202    3.1132 H       1  UNL1        0.0278
     81 H           3.6459    3.2585   -0.1686 H       1  UNL1        0.0381
     82 H           3.5364    3.6099   -1.9080 H       1  UNL1        0.0381
     83 H           1.9317   -2.7837    1.8584 H       1  UNL1        0.0381
     84 H           0.6273   -2.7253    3.0656 H       1  UNL1        0.0381
     85 H           0.3367   -3.7665   -1.0210 H       1  UNL1        0.0381
     86 H          -1.3583   -3.8396   -0.4875 H       1  UNL1        0.0381
     87 H          -5.8912    3.0739    1.0485 H       1  UNL1        0.0381
     88 H          -5.6411    2.8610   -0.6991 H       1  UNL1        0.0381
     89 H           5.4227    6.2505   -0.4779 H       1  UNL1        0.2951
     90 H           2.1297   -5.9207    3.3955 H       1  UNL1        0.2951
     91 H          -0.3072   -7.1691   -0.2553 H       1  UNL1        0.2951
     92 H          -9.1162    2.6371   -0.3588 H       1  UNL1        0.2951
@<TRIPOS>BOND
     1     1    45    1
     2     1    89    1
     3     2    46    1
     4     2    90    1
     5     3    47    1
     6     3    91    1
     7     4    48    1
     8     4    92    1
     9     5    45    2
    10     6    46    2
    11     7    47    2
    12     8    48    2
    13     9    13   ar
    14     9    17   ar
    15     9    57    1
    16    10    14   ar
    17    10    21   ar
    18    10    58    1
    19    11    15   ar
    20    11    20   ar
    21    11    59    1
    22    12    18   ar
    23    12    23   ar
    24    12    60    1
    25    13    16    1
    26    13    25   ar
    27    14    16    1
    28    14    26   ar
    29    15    19    1
    30    15    27   ar
    31    16    49    1
    32    16    50    1
    33    17    19    1
    34    17    29   ar
    35    18    22    1
    36    18    28   ar
    37    19    51    1
    38    19    52    1
    39    20    22    1
    40    20    30   ar
    41    21    24    1
    42    21    31   ar
    43    22    53    1
    44    22    54    1
    45    23    24    1
    46    23    32   ar
    47    24    55    1
    48    24    56    1
    49    25    29   ar
    50    25    33    1
    51    26    31   ar
    52    26    34    1
    53    27    30   ar
    54    27    35    1
    55    28    32   ar
    56    28    36    1
    57    29    37    1
    58    30    38    1
    59    31    39    1
    60    32    40    1
    61    33    41    1
    62    33    61    1
    63    33    62    1
    64    34    42    1
    65    34    63    1
    66    34    64    1
    67    35    43    1
    68    35    65    1
    69    35    66    1
    70    36    44    1
    71    36    67    1
    72    36    68    1
    73    37    69    1
    74    37    70    1
    75    37    71    1
    76    38    72    1
    77    38    73    1
    78    38    74    1
    79    39    75    1
    80    39    76    1
    81    39    77    1
    82    40    78    1
    83    40    79    1
    84    40    80    1
    85    41    45    1
    86    41    81    1
    87    41    82    1
    88    42    46    1
    89    42    83    1
    90    42    84    1
    91    43    47    1
    92    43    85    1
    93    43    86    1
    94    44    48    1
    95    44    87    1
    96    44    88    1
