@<TRIPOS>MOLECULE
phycocyanobilin
 81 84 0 0 0
SMALL
GASTEIGER

@<TRIPOS>ATOM
      1 O           2.9231    3.7098   -0.4841 O.2     1  UNL1       -0.2748
      2 O           0.3741   -1.5173   -2.7000 O.3     1  UNL1       -0.4806
      3 O          -4.4484   -5.3936    1.0189 O.3     1  UNL1       -0.4806
      4 O          -1.1433   -3.1819   -2.4243 O.2     1  UNL1       -0.2510
      5 O          -3.8337   -4.5433    3.0335 O.2     1  UNL1       -0.2510
      6 O          -5.2026    4.5853    1.2171 O.2     1  UNL1       -0.2684
      7 N           2.5243   -1.2382    0.8056 N.ar    1  UNL1       -0.3545
      8 N          -0.3566   -0.0226    0.0631 N.ar    1  UNL1       -0.3545
      9 N           3.6019    1.5227   -0.0405 N.am    1  UNL1       -0.2847
     10 N          -3.2374    3.4275    0.7567 N.am    1  UNL1       -0.1767
     11 C           2.3696   -2.9613   -0.5867 C.ar    1  UNL1       -0.0186
     12 C           1.6742   -2.2006    0.3271 C.ar    1  UNL1        0.0451
     13 C           3.6842   -2.4378   -0.6599 C.ar    1  UNL1       -0.0220
     14 C           3.7521   -1.3734    0.2117 C.ar    1  UNL1        0.0446
     15 C          -1.9279   -1.1999    1.1909 C.ar    1  UNL1       -0.0186
     16 C          -0.5466   -1.2265    0.6935 C.ar    1  UNL1        0.0451
     17 C           0.3340   -2.2238    0.8324 C.2     1  UNL1       -0.0145
     18 C          -2.4822   -0.0137    0.8432 C.ar    1  UNL1       -0.0220
     19 C           1.8427   -4.1112   -1.3519 C.3     1  UNL1       -0.0154
     20 C           5.1198    3.2421    0.4753 C.3     1  UNL1        0.0595
     21 C           4.6939    0.8773    0.4616 C.2     1  UNL1        0.0390
     22 C          -1.4778    0.7668    0.1095 C.ar    1  UNL1        0.0447
     23 C           5.6829    1.8749    0.8130 C.2     1  UNL1       -0.0187
     24 C          -2.5351   -2.3338    1.9420 C.3     1  UNL1       -0.0154
     25 C           4.7631   -0.4704    0.5785 C.2     1  UNL1       -0.0166
     26 C           4.7808   -2.9413   -1.5138 C.3     1  UNL1       -0.0374
     27 C           3.7436    2.8993   -0.0785 C.2     1  UNL1        0.2244
     28 C           1.2124   -3.7399   -2.7091 C.3     1  UNL1        0.0488
     29 C          -3.2201   -3.3437    1.0286 C.3     1  UNL1        0.0488
     30 C          -3.8566    0.4934    1.1129 C.3     1  UNL1       -0.0374
     31 C          -1.6355    1.9925   -0.4026 C.2     1  UNL1       -0.0147
     32 C           5.9298    4.0116   -0.5587 C.3     1  UNL1       -0.0500
     33 C           6.8879    1.6650    1.3584 C.2     1  UNL1       -0.0814
     34 C          -2.9213    2.6616   -0.2397 C.2     1  UNL1        0.0622
     35 C          -3.9803    2.4998   -1.2412 C.2     1  UNL1       -0.0192
     36 C          -4.9805    3.2458   -0.7563 C.2     1  UNL1        0.0208
     37 C           0.0148   -2.8228   -2.5826 C.2     1  UNL1        0.3050
     38 C           7.8522    2.7521    1.6916 C.3     1  UNL1       -0.0462
     39 C          -3.8607   -4.4642    1.8119 C.2     1  UNL1        0.3050
     40 C          -6.3380    3.5086   -1.2928 C.3     1  UNL1       -0.0252
     41 C          -4.5239    3.8469    0.5203 C.2     1  UNL1        0.2640
     42 C          -3.8935    1.6849   -2.4746 C.3     1  UNL1       -0.0375
     43 C          -7.3594    2.4932   -0.8000 C.3     1  UNL1       -0.0611
     44 H           2.2826   -0.5379    1.4950 H       1  UNL1        0.1659
     45 H           0.0355   -3.1536    1.3081 H       1  UNL1        0.0659
     46 H           1.0914   -4.6376   -0.7487 H       1  UNL1        0.0319
     47 H           2.6431   -4.8400   -1.5292 H       1  UNL1        0.0319
     48 H           4.9685    3.8347    1.3851 H       1  UNL1        0.0441
     49 H          -1.7900   -2.8288    2.5767 H       1  UNL1        0.0319
     50 H          -3.2719   -1.9416    2.6554 H       1  UNL1        0.0319
     51 H           5.6856   -0.9189    0.9385 H       1  UNL1        0.0657
     52 H           0.5000    0.2523   -0.3926 H       1  UNL1        0.1659
     53 H           4.4496   -3.0402   -2.5526 H       1  UNL1        0.0278
     54 H           5.6465   -2.2714   -1.5087 H       1  UNL1        0.0278
     55 H           5.1154   -3.9237   -1.1647 H       1  UNL1        0.0278
     56 H           2.7695    1.0484   -0.3699 H       1  UNL1        0.1548
     57 H           1.9517   -3.2664   -3.3664 H       1  UNL1        0.0381
     58 H           0.8802   -4.6474   -3.2267 H       1  UNL1        0.0381
     59 H          -2.4904   -3.7875    0.3418 H       1  UNL1        0.0381
     60 H          -4.0047   -2.8529    0.4412 H       1  UNL1        0.0381
     61 H          -3.8696    1.3671    1.7630 H       1  UNL1        0.0278
     62 H          -4.4058   -0.2576    1.6960 H       1  UNL1        0.0278
     63 H          -4.4619    0.5898    0.2147 H       1  UNL1        0.0278
     64 H          -0.8483    2.5047   -0.9423 H       1  UNL1        0.0657
     65 H           6.8770    4.3851   -0.1639 H       1  UNL1        0.0240
     66 H           5.3682    4.8826   -0.9157 H       1  UNL1        0.0240
     67 H           6.1499    3.3923   -1.4362 H       1  UNL1        0.0240
     68 H           7.2291    0.6546    1.5661 H       1  UNL1        0.0573
     69 H           8.5819    2.8777    0.8863 H       1  UNL1        0.0272
     70 H           8.4026    2.4751    2.5977 H       1  UNL1        0.0272
     71 H           7.3717    3.7094    1.9086 H       1  UNL1        0.0272
     72 H          -6.3171    3.4876   -2.3888 H       1  UNL1        0.0312
     73 H          -6.6644    4.5191   -1.0207 H       1  UNL1        0.0312
     74 H          -3.0867    2.0491   -3.1183 H       1  UNL1        0.0278
     75 H          -4.8219    1.7223   -3.0523 H       1  UNL1        0.0278
     76 H          -3.6977    0.6351   -2.2357 H       1  UNL1        0.0278
     77 H          -7.0866    1.4767   -1.1030 H       1  UNL1        0.0233
     78 H          -8.3461    2.7168   -1.2180 H       1  UNL1        0.0233
     79 H          -7.4425    2.5127    0.2919 H       1  UNL1        0.0233
     80 H          -0.3987   -0.9176   -2.6260 H       1  UNL1        0.2951
     81 H          -4.8487   -6.1208    1.5416 H       1  UNL1        0.2951
@<TRIPOS>BOND
     1     1    27    2
     2     2    37    1
     3     2    80    1
     4     3    39    1
     5     3    81    1
     6     4    37    2
     7     5    39    2
     8     6    41    2
     9     7    12   ar
    10     7    14   ar
    11     7    44    1
    12     8    16   ar
    13     8    22   ar
    14     8    52    1
    15     9    21    1
    16     9    27   am
    17     9    56    1
    18    10    34    2
    19    10    41    1
    20    11    12   ar
    21    11    13   ar
    22    11    19    1
    23    12    17    1
    24    13    14   ar
    25    13    26    1
    26    14    25    1
    27    15    16   ar
    28    15    18   ar
    29    15    24    1
    30    16    17    2
    31    17    45    1
    32    18    22   ar
    33    18    30    1
    34    19    28    1
    35    19    46    1
    36    19    47    1
    37    20    23    1
    38    20    27    1
    39    20    32    1
    40    20    48    1
    41    21    23    1
    42    21    25    2
    43    22    31    2
    44    23    33    2
    45    24    29    1
    46    24    49    1
    47    24    50    1
    48    25    51    1
    49    26    53    1
    50    26    54    1
    51    26    55    1
    52    28    37    1
    53    28    57    1
    54    28    58    1
    55    29    39    1
    56    29    59    1
    57    29    60    1
    58    30    61    1
    59    30    62    1
    60    30    63    1
    61    31    34    1
    62    31    64    1
    63    32    65    1
    64    32    66    1
    65    32    67    1
    66    33    38    1
    67    33    68    1
    68    34    35    1
    69    35    36    2
    70    35    42    1
    71    36    40    1
    72    36    41    1
    73    38    69    1
    74    38    70    1
    75    38    71    1
    76    40    43    1
    77    40    72    1
    78    40    73    1
    79    42    74    1
    80    42    75    1
    81    42    76    1
    82    43    77    1
    83    43    78    1
    84    43    79    1
