@<TRIPOS>MOLECULE
porphine
 38 42 0 0 0
SMALL
GASTEIGER

@<TRIPOS>ATOM
      1 N           0.4127    1.9875    0.0060 N.ar    1  UNL1       -0.3550
      2 N          -2.1747    0.3925   -0.2463 N.ar    1  UNL1       -0.3550
      3 N           1.9998   -0.3778    0.0260 N.2     1  UNL1       -0.2477
      4 N          -0.3861   -1.9246    0.0321 N.2     1  UNL1       -0.2477
      5 C          -0.5809    2.9233   -0.1226 C.ar    1  UNL1        0.0416
      6 C          -2.6683    1.6350    0.0877 C.ar    1  UNL1        0.0416
      7 C           1.6706    2.5349   -0.0864 C.ar    1  UNL1        0.0417
      8 C          -3.0927   -0.5912    0.0504 C.ar    1  UNL1        0.0417
      9 C          -1.9187    2.8279   -0.0962 C.2     1  UNL1       -0.0150
     10 C           0.1258    4.1923   -0.2938 C.ar    1  UNL1       -0.0364
     11 C          -3.9618    1.4388    0.5350 C.ar    1  UNL1       -0.0364
     12 C           1.4517    3.9625   -0.2673 C.ar    1  UNL1       -0.0364
     13 C          -4.2271    0.0492    0.5104 C.ar    1  UNL1       -0.0364
     14 C           2.8744    1.9486   -0.0385 C.2     1  UNL1       -0.0129
     15 C          -2.8198   -1.9662   -0.1761 C.2     1  UNL1       -0.0129
     16 C           2.9766    0.4787    0.0824 C.2     1  UNL1        0.0665
     17 C          -1.6035   -2.5325   -0.1753 C.2     1  UNL1        0.0665
     18 C           2.5876   -1.6106    0.1562 C.2     1  UNL1        0.0666
     19 C           0.4912   -2.8849   -0.0303 C.2     1  UNL1        0.0666
     20 C           1.9609   -2.7931    0.1349 C.2     1  UNL1       -0.0109
     21 C           4.3085   -0.1129    0.2585 C.2     1  UNL1       -0.0342
     22 C          -1.3683   -3.9440   -0.3668 C.2     1  UNL1       -0.0342
     23 C           4.0091   -1.4132    0.2999 C.2     1  UNL1       -0.0342
     24 C          -0.0671   -4.2203   -0.2798 C.2     1  UNL1       -0.0342
     25 H          -2.5014    3.7439   -0.1811 H       1  UNL1        0.0659
     26 H           0.2603    1.0100    0.1931 H       1  UNL1        0.1659
     27 H          -1.2722    0.2196   -0.6654 H       1  UNL1        0.1659
     28 H          -0.3473    5.1539   -0.4181 H       1  UNL1        0.0639
     29 H          -4.6424    2.2175    0.8524 H       1  UNL1        0.0639
     30 H           2.2278    4.7042   -0.3698 H       1  UNL1        0.0639
     31 H          -5.1478   -0.4354    0.8062 H       1  UNL1        0.0639
     32 H           3.7914    2.5231   -0.1169 H       1  UNL1        0.0659
     33 H          -3.6887   -2.6086   -0.3097 H       1  UNL1        0.0659
     34 H           2.5171   -3.7211    0.2265 H       1  UNL1        0.0660
     35 H           5.2603    0.3790    0.3309 H       1  UNL1        0.0639
     36 H          -2.1443   -4.6724   -0.5480 H       1  UNL1        0.0639
     37 H           4.7259   -2.2112    0.4195 H       1  UNL1        0.0639
     38 H           0.4454   -5.1599   -0.3689 H       1  UNL1        0.0639
@<TRIPOS>BOND
     1     1     5   ar
     2     1     7   ar
     3     1    26    1
     4     2     6   ar
     5     2     8   ar
     6     2    27    1
     7     3    16    2
     8     3    18    1
     9     4    17    1
    10     4    19    2
    11     5     9    2
    12     5    10   ar
    13     6     9    1
    14     6    11   ar
    15     7    12   ar
    16     7    14    2
    17     8    13   ar
    18     8    15    1
    19     9    25    1
    20    10    12   ar
    21    10    28    1
    22    11    13   ar
    23    11    29    1
    24    12    30    1
    25    13    31    1
    26    14    16    1
    27    14    32    1
    28    15    17    2
    29    15    33    1
    30    16    21    1
    31    17    22    1
    32    18    20    2
    33    18    23    1
    34    19    20    1
    35    19    24    1
    36    20    34    1
    37    21    23    2
    38    21    35    1
    39    22    24    2
    40    22    36    1
    41    23    37    1
    42    24    38    1
