@<TRIPOS>MOLECULE
porphobilinogen
 30 30 0 0 0
SMALL
GASTEIGER

@<TRIPOS>ATOM
      1 O           1.3739   -3.4792    0.5470 O.3     1  UNL1       -0.4804
      2 O          -4.6648    0.6043    1.2924 O.3     1  UNL1       -0.4806
      3 O           1.4626   -2.1978   -1.3269 O.2     1  UNL1       -0.2507
      4 O          -4.2731   -0.6493   -0.5584 O.2     1  UNL1       -0.2510
      5 N           1.5954    2.0628   -0.8572 N.ar    1  UNL1       -0.3629
      6 N           3.5961    1.5117    1.6750 N.3     1  UNL1       -0.3250
      7 C           0.9440    0.1432    0.0498 C.ar    1  UNL1       -0.0118
      8 C          -0.1383    0.7382   -0.6118 C.ar    1  UNL1       -0.0256
      9 C           2.0177    0.9895   -0.1171 C.ar    1  UNL1        0.0337
     10 C          -1.5300    0.1784   -0.7034 C.3     1  UNL1       -0.0159
     11 C           0.2683    1.9143   -1.1655 C.ar    1  UNL1        0.0054
     12 C           0.9490   -1.1376    0.7869 C.3     1  UNL1        0.0718
     13 C           3.4125    0.8913    0.3544 C.3     1  UNL1        0.0342
     14 C          -2.4488    0.6248    0.4377 C.3     1  UNL1        0.0488
     15 C           1.3003   -2.2986   -0.1173 C.2     1  UNL1        0.3091
     16 C          -3.8647    0.1038    0.3143 C.2     1  UNL1        0.3050
     17 H          -1.9724    0.4820   -1.6620 H       1  UNL1        0.0319
     18 H          -1.4895   -0.9176   -0.7373 H       1  UNL1        0.0319
     19 H          -0.2495    2.6638   -1.7477 H       1  UNL1        0.0810
     20 H          -0.0331   -1.3352    1.2294 H       1  UNL1        0.0427
     21 H           1.6807   -1.1073    1.6020 H       1  UNL1        0.0427
     22 H           2.1711    2.8462   -1.1343 H       1  UNL1        0.1651
     23 H           3.7271   -0.1570    0.4069 H       1  UNL1        0.0486
     24 H           4.0872    1.3835   -0.3558 H       1  UNL1        0.0486
     25 H          -2.0459    0.2797    1.3968 H       1  UNL1        0.0381
     26 H          -2.4965    1.7203    0.4599 H       1  UNL1        0.0381
     27 H           4.5728    1.4191    1.9521 H       1  UNL1        0.1186
     28 H           3.0572    0.9944    2.3691 H       1  UNL1        0.1186
     29 H           1.5823   -4.2252   -0.0548 H       1  UNL1        0.2951
     30 H          -5.5874    0.2813    1.2104 H       1  UNL1        0.2951
@<TRIPOS>BOND
     1     1    15    1
     2     1    29    1
     3     2    16    1
     4     2    30    1
     5     3    15    2
     6     4    16    2
     7     5     9   ar
     8     5    11   ar
     9     5    22    1
    10     6    13    1
    11     6    27    1
    12     6    28    1
    13     7     8   ar
    14     7     9   ar
    15     7    12    1
    16     8    10    1
    17     8    11   ar
    18     9    13    1
    19    10    14    1
    20    10    17    1
    21    10    18    1
    22    11    19    1
    23    12    15    1
    24    12    20    1
    25    12    21    1
    26    13    23    1
    27    13    24    1
    28    14    16    1
    29    14    25    1
    30    14    26    1
