@<TRIPOS>MOLECULE
protoporphyrin_ix
 76 80 0 0 0
SMALL
GASTEIGER

@<TRIPOS>ATOM
      1 O           7.1385    2.7050   -0.6711 O.3     1  UNL1       -0.4806
      2 O           5.7615   -3.2503   -2.9408 O.3     1  UNL1       -0.4806
      3 O           6.7154    2.1599    1.4930 O.2     1  UNL1       -0.2510
      4 O           6.1372   -3.4886   -0.7132 O.2     1  UNL1       -0.2510
      5 N          -2.5250    1.9272    0.2862 N.ar    1  UNL1       -0.3543
      6 N          -2.6939   -1.1180    0.2758 N.ar    1  UNL1       -0.3543
      7 N           0.4051    1.5170    0.2379 N.2     1  UNL1       -0.2472
      8 N           0.1811   -1.3404    0.4974 N.2     1  UNL1       -0.2472
      9 C           2.5070    2.3377    0.8711 C.2     1  UNL1       -0.0165
     10 C           2.0591   -2.6167    0.1996 C.2     1  UNL1       -0.0165
     11 C           1.6482    1.2058    0.4657 C.2     1  UNL1        0.0700
     12 C           1.6304    3.3517    0.8618 C.2     1  UNL1       -0.0198
     13 C           1.5429   -1.2639    0.3342 C.2     1  UNL1        0.0700
     14 C           1.0549   -3.5020    0.2769 C.2     1  UNL1       -0.0198
     15 C           0.3143    2.8720    0.4652 C.2     1  UNL1        0.0697
     16 C          -0.1068   -2.6087    0.4631 C.2     1  UNL1        0.0697
     17 C          -2.0505    3.1577   -0.1110 C.ar    1  UNL1        0.0452
     18 C          -3.9963   -0.6924    0.2747 C.ar    1  UNL1        0.0452
     19 C          -2.5688   -2.4592    0.5400 C.ar    1  UNL1        0.0492
     20 C          -3.7828    1.7074   -0.2302 C.ar    1  UNL1        0.0491
     21 C           3.9475    2.2748    1.2062 C.3     1  UNL1       -0.0153
     22 C           3.5095   -2.9072    0.0057 C.3     1  UNL1       -0.0153
     23 C           2.2658   -0.1348    0.3202 C.2     1  UNL1       -0.0103
     24 C          -3.0486    3.7530   -0.8571 C.ar    1  UNL1       -0.0180
     25 C          -4.7892   -1.9053    0.5602 C.ar    1  UNL1       -0.0180
     26 C          -4.1304    2.8451   -0.9341 C.ar    1  UNL1        0.0027
     27 C          -3.9471   -2.9601    0.7181 C.ar    1  UNL1        0.0027
     28 C          -0.7823    3.6329    0.3107 C.2     1  UNL1       -0.0124
     29 C          -1.4551   -3.2035    0.6248 C.2     1  UNL1       -0.0121
     30 C          -4.5176    0.5263    0.0526 C.2     1  UNL1       -0.0141
     31 C           1.9005    4.7807    1.1965 C.3     1  UNL1       -0.0374
     32 C           4.8520    2.5394    0.0033 C.3     1  UNL1        0.0488
     33 C           3.9112   -2.9257   -1.4638 C.3     1  UNL1        0.0488
     34 C           1.0259   -4.9791    0.1919 C.3     1  UNL1       -0.0374
     35 C          -2.9926    5.1012   -1.4661 C.3     1  UNL1       -0.0371
     36 C          -6.2814   -1.8735    0.6439 C.3     1  UNL1       -0.0371
     37 C          -5.3600    3.0491   -1.6044 C.2     1  UNL1       -0.0594
     38 C          -4.3596   -4.3097    1.0073 C.2     1  UNL1       -0.0594
     39 C           6.3128    2.4348    0.3698 C.2     1  UNL1        0.3050
     40 C           5.3729   -3.2588   -1.6419 C.2     1  UNL1        0.3050
     41 C          -6.1715    2.1311   -2.1847 C.2     1  UNL1       -0.0981
     42 C          -4.6339   -5.2115    0.0645 C.2     1  UNL1       -0.0981
     43 H           4.1938    1.3129    1.6711 H       1  UNL1        0.0319
     44 H           4.1687    3.0159    1.9856 H       1  UNL1        0.0319
     45 H           3.7406   -3.8863    0.4471 H       1  UNL1        0.0319
     46 H           4.1341   -2.2066    0.5729 H       1  UNL1        0.0319
     47 H           3.3403   -0.1671    0.1855 H       1  UNL1        0.0660
     48 H          -0.7083    4.7057    0.4708 H       1  UNL1        0.0659
     49 H          -1.5138   -4.2667    0.8304 H       1  UNL1        0.0660
     50 H          -2.0287    1.2921    0.8961 H       1  UNL1        0.1659
     51 H          -1.9035   -0.5315    0.0596 H       1  UNL1        0.1659
     52 H          -5.5979    0.6383    0.0920 H       1  UNL1        0.0659
     53 H           1.2897    5.1008    2.0471 H       1  UNL1        0.0278
     54 H           2.9482    4.9486    1.4639 H       1  UNL1        0.0278
     55 H           1.6775    5.4274    0.3414 H       1  UNL1        0.0278
     56 H           4.6712    3.5474   -0.3875 H       1  UNL1        0.0381
     57 H           4.6518    1.8113   -0.7907 H       1  UNL1        0.0381
     58 H           3.3272   -3.6772   -2.0076 H       1  UNL1        0.0381
     59 H           3.7327   -1.9441   -1.9173 H       1  UNL1        0.0381
     60 H           2.0137   -5.3942   -0.0290 H       1  UNL1        0.0278
     61 H           0.3499   -5.3061   -0.6044 H       1  UNL1        0.0278
     62 H           0.6873   -5.4128    1.1379 H       1  UNL1        0.0278
     63 H          -3.5447    5.8188   -0.8503 H       1  UNL1        0.0278
     64 H          -3.4318    5.0997   -2.4692 H       1  UNL1        0.0278
     65 H          -1.9644    5.4627   -1.5680 H       1  UNL1        0.0278
     66 H          -6.7151   -1.5506   -0.3082 H       1  UNL1        0.0278
     67 H          -6.6100   -1.1876    1.4317 H       1  UNL1        0.0278
     68 H          -6.7014   -2.8571    0.8758 H       1  UNL1        0.0278
     69 H          -5.6930    4.0826   -1.6921 H       1  UNL1        0.0618
     70 H          -4.4411   -4.5822    2.0553 H       1  UNL1        0.0618
     71 H          -7.0854    2.4544   -2.6733 H       1  UNL1        0.0535
     72 H          -5.9398    1.0737   -2.2183 H       1  UNL1        0.0535
     73 H          -4.9394   -6.2155    0.3391 H       1  UNL1        0.0535
     74 H          -4.5621   -4.9765   -0.9923 H       1  UNL1        0.0535
     75 H           8.0834    2.6451   -0.4143 H       1  UNL1        0.2951
     76 H           6.7157   -3.4560   -3.0389 H       1  UNL1        0.2951
@<TRIPOS>BOND
     1     1    39    1
     2     1    75    1
     3     2    40    1
     4     2    76    1
     5     3    39    2
     6     4    40    2
     7     5    17   ar
     8     5    20   ar
     9     5    50    1
    10     6    18   ar
    11     6    19   ar
    12     6    51    1
    13     7    11    2
    14     7    15    1
    15     8    13    1
    16     8    16    2
    17     9    11    1
    18     9    12    2
    19     9    21    1
    20    10    13    1
    21    10    14    2
    22    10    22    1
    23    11    23    1
    24    12    15    1
    25    12    31    1
    26    13    23    2
    27    14    16    1
    28    14    34    1
    29    15    28    2
    30    16    29    1
    31    17    24   ar
    32    17    28    1
    33    18    25   ar
    34    18    30    2
    35    19    27   ar
    36    19    29    2
    37    20    26   ar
    38    20    30    1
    39    21    32    1
    40    21    43    1
    41    21    44    1
    42    22    33    1
    43    22    45    1
    44    22    46    1
    45    23    47    1
    46    24    26   ar
    47    24    35    1
    48    25    27   ar
    49    25    36    1
    50    26    37    1
    51    27    38    1
    52    28    48    1
    53    29    49    1
    54    30    52    1
    55    31    53    1
    56    31    54    1
    57    31    55    1
    58    32    39    1
    59    32    56    1
    60    32    57    1
    61    33    40    1
    62    33    58    1
    63    33    59    1
    64    34    60    1
    65    34    61    1
    66    34    62    1
    67    35    63    1
    68    35    64    1
    69    35    65    1
    70    36    66    1
    71    36    67    1
    72    36    68    1
    73    37    41    2
    74    37    69    1
    75    38    42    2
    76    38    70    1
    77    41    71    1
    78    41    72    1
    79    42    73    1
    80    42    74    1
