@<TRIPOS>MOLECULE
uroporphyrinogen_iii
 104 108 0 0 0
SMALL
GASTEIGER

@<TRIPOS>ATOM
      1 O          -2.0378    1.4302    3.1155 O.3     1  UNL1       -0.4804
      2 O          -8.9814   -2.3328   -1.6770 O.3     1  UNL1       -0.4804
      3 O          -6.4426    6.0177    1.4369 O.3     1  UNL1       -0.4804
      4 O         -10.5670    7.3817   -0.4039 O.3     1  UNL1       -0.4804
      5 O          -2.5289   -0.7429    2.8449 O.2     1  UNL1       -0.2507
      6 O         -10.3857   -1.0663   -0.4375 O.2     1  UNL1       -0.2507
      7 O          -7.4961    7.9868    1.6403 O.2     1  UNL1       -0.2507
      8 O         -11.1504    5.5905   -1.6409 O.2     1  UNL1       -0.2507
      9 O           3.3142    3.4902    1.6193 O.3     1  UNL1       -0.4806
     10 O          -2.9143    9.8114    2.9704 O.3     1  UNL1       -0.4806
     11 O          -4.0373   -3.3922    3.3757 O.3     1  UNL1       -0.4806
     12 O         -12.4487    0.6819    0.5629 O.3     1  UNL1       -0.4806
     13 O           1.6844    4.8467    2.3845 O.2     1  UNL1       -0.2510
     14 O          -1.2086    8.4646    2.3465 O.2     1  UNL1       -0.2510
     15 O          -5.7735   -4.8026    3.1946 O.2     1  UNL1       -0.2510
     16 O         -13.1129    2.6554    1.4162 O.2     1  UNL1       -0.2510
     17 N          -2.7495    2.1691   -1.5391 N.ar    1  UNL1       -0.3606
     18 N          -4.4927    5.0527   -2.1741 N.ar    1  UNL1       -0.3606
     19 N          -5.5236    0.3097   -1.7790 N.ar    1  UNL1       -0.3606
     20 N          -7.3431    3.2080   -2.3952 N.ar    1  UNL1       -0.3606
     21 C          -2.0495    3.2260   -1.0009 C.ar    1  UNL1        0.0254
     22 C          -3.4036    5.3470   -1.3951 C.ar    1  UNL1        0.0254
     23 C          -4.6686   -0.3647   -0.9495 C.ar    1  UNL1        0.0254
     24 C          -2.5421    1.0158   -0.8151 C.ar    1  UNL1        0.0259
     25 C          -8.0774    2.2585   -1.7439 C.ar    1  UNL1        0.0254
     26 C          -2.1048    4.6075   -1.6105 C.3     1  UNL1        0.0284
     27 C          -6.8265    0.1252   -1.4057 C.ar    1  UNL1        0.0259
     28 C          -5.5601    5.8363   -1.8332 C.ar    1  UNL1        0.0259
     29 C          -3.1829   -0.2930   -1.2058 C.3     1  UNL1        0.0284
     30 C          -7.6151    4.4531   -1.9064 C.ar    1  UNL1        0.0259
     31 C          -7.9305    0.8284   -2.1430 C.3     1  UNL1        0.0284
     32 C          -6.9072    5.6433   -2.4735 C.3     1  UNL1        0.0284
     33 C          -1.3000    2.7268    0.0634 C.ar    1  UNL1       -0.0220
     34 C          -3.7460    6.4194   -0.5660 C.ar    1  UNL1       -0.0220
     35 C          -5.4514   -1.0414   -0.0098 C.ar    1  UNL1       -0.0220
     36 C          -8.9069    2.9086   -0.8364 C.ar    1  UNL1       -0.0220
     37 C          -1.6330    1.3242    0.1936 C.ar    1  UNL1       -0.0124
     38 C          -6.8431   -0.7839   -0.3548 C.ar    1  UNL1       -0.0124
     39 C          -5.1268    6.7344   -0.8677 C.ar    1  UNL1       -0.0124
     40 C          -8.6059    4.3134   -0.9409 C.ar    1  UNL1       -0.0124
     41 C          -0.3475    3.5251    0.9300 C.3     1  UNL1       -0.0157
     42 C          -2.7967    7.0691    0.4340 C.3     1  UNL1       -0.0157
     43 C          -4.8965   -1.8215    1.1626 C.3     1  UNL1       -0.0157
     44 C          -9.9293    2.2821    0.0818 C.3     1  UNL1       -0.0157
     45 C          -1.1049    0.3515    1.2076 C.3     1  UNL1        0.0718
     46 C          -8.0904   -1.3229    0.3120 C.3     1  UNL1        0.0718
     47 C          -6.0213    7.7564   -0.2350 C.3     1  UNL1        0.0718
     48 C          -9.2325    5.4180   -0.1430 C.3     1  UNL1        0.0718
     49 C           1.1109    3.0767    0.8220 C.3     1  UNL1        0.0488
     50 C          -3.3528    8.2334    1.2516 C.3     1  UNL1        0.0488
     51 C          -5.7531   -2.9502    1.7036 C.3     1  UNL1        0.0488
     52 C         -11.3673    2.6786   -0.2348 C.3     1  UNL1        0.0488
     53 C          -1.9691    0.2680    2.4360 C.2     1  UNL1        0.3091
     54 C          -9.2705   -1.5434   -0.6115 C.2     1  UNL1        0.3091
     55 C          -6.6945    7.2827    1.0357 C.2     1  UNL1        0.3091
     56 C         -10.4040    6.0973   -0.8172 C.2     1  UNL1        0.3091
     57 C           2.0272    3.9096    1.6845 C.2     1  UNL1        0.3050
     58 C          -2.3785    8.8165    2.2316 C.2     1  UNL1        0.3050
     59 C          -5.1819   -3.8030    2.8030 C.2     1  UNL1        0.3050
     60 C         -12.3767    2.0265    0.6640 C.2     1  UNL1        0.3050
     61 H          -1.2762    5.2211   -1.2441 H       1  UNL1        0.0391
     62 H          -1.9360    4.5111   -2.6923 H       1  UNL1        0.0391
     63 H          -3.0084   -0.4486   -2.2801 H       1  UNL1        0.0391
     64 H          -2.6726   -1.1282   -0.7147 H       1  UNL1        0.0391
     65 H          -8.8916    0.3390   -2.0112 H       1  UNL1        0.0391
     66 H          -7.7252    0.7594   -3.2190 H       1  UNL1        0.0391
     67 H          -7.5312    6.5344   -2.3525 H       1  UNL1        0.0391
     68 H          -6.7790    5.5144   -3.5561 H       1  UNL1        0.0391
     69 H          -3.3274    2.2290   -2.3539 H       1  UNL1        0.1653
     70 H          -4.5084    4.3449   -2.8929 H       1  UNL1        0.1653
     71 H          -5.2276    0.8797   -2.5561 H       1  UNL1        0.1653
     72 H          -6.7027    3.0153   -3.1503 H       1  UNL1        0.1653
     73 H          -0.4029    4.5867    0.6602 H       1  UNL1        0.0319
     74 H          -0.6873    3.4739    1.9708 H       1  UNL1        0.0319
     75 H          -2.4397    6.2892    1.1189 H       1  UNL1        0.0319
     76 H          -1.9187    7.4232   -0.1214 H       1  UNL1        0.0319
     77 H          -3.9122   -2.2250    0.8963 H       1  UNL1        0.0319
     78 H          -4.7481   -1.0965    1.9701 H       1  UNL1        0.0319
     79 H          -9.8337    1.1992    0.0278 H       1  UNL1        0.0319
     80 H          -9.6899    2.5400    1.1210 H       1  UNL1        0.0319
     81 H          -0.0908    0.5847    1.5308 H       1  UNL1        0.0427
     82 H          -1.0420   -0.6515    0.7698 H       1  UNL1        0.0427
     83 H          -7.9305   -2.3170    0.7220 H       1  UNL1        0.0427
     84 H          -8.3833   -0.6575    1.1304 H       1  UNL1        0.0427
     85 H          -5.4860    8.6782   -0.0165 H       1  UNL1        0.0427
     86 H          -6.8094    8.0488   -0.9377 H       1  UNL1        0.0427
     87 H          -9.5239    5.0792    0.8564 H       1  UNL1        0.0427
     88 H          -8.4773    6.1854   -0.0292 H       1  UNL1        0.0427
     89 H           1.2269    2.0457    1.1597 H       1  UNL1        0.0381
     90 H           1.4546    3.1410   -0.2159 H       1  UNL1        0.0381
     91 H          -3.6190    9.0564    0.5818 H       1  UNL1        0.0381
     92 H          -4.2205    7.9057    1.8313 H       1  UNL1        0.0381
     93 H          -6.6543   -2.5275    2.1551 H       1  UNL1        0.0381
     94 H          -6.0275   -3.6233    0.8808 H       1  UNL1        0.0381
     95 H         -11.4908    3.7516   -0.0698 H       1  UNL1        0.0381
     96 H         -11.6366    2.4860   -1.2790 H       1  UNL1        0.0381
     97 H          -2.6332    1.2783    3.8757 H       1  UNL1        0.2951
     98 H          -8.0426   -2.6086   -1.7003 H       1  UNL1        0.2951
     99 H          -5.8920    5.4821    0.8237 H       1  UNL1        0.2951
    100 H          -9.9339    7.6785    0.2825 H       1  UNL1        0.2951
    101 H           3.4587    2.7275    1.0285 H       1  UNL1        0.2951
    102 H          -3.8566    9.9950    2.7905 H       1  UNL1        0.2951
    103 H          -3.6435   -2.5423    3.0885 H       1  UNL1        0.2951
    104 H         -11.8154    0.2491   -0.0554 H       1  UNL1        0.2951
@<TRIPOS>BOND
     1     1    53    1
     2     1    97    1
     3     2    54    1
     4     2    98    1
     5     3    55    1
     6     3    99    1
     7     4    56    1
     8     4   100    1
     9     5    53    2
    10     6    54    2
    11     7    55    2
    12     8    56    2
    13     9    57    1
    14     9   101    1
    15    10    58    1
    16    10   102    1
    17    11    59    1
    18    11   103    1
    19    12    60    1
    20    12   104    1
    21    13    57    2
    22    14    58    2
    23    15    59    2
    24    16    60    2
    25    17    21   ar
    26    17    24   ar
    27    17    69    1
    28    18    22   ar
    29    18    28   ar
    30    18    70    1
    31    19    23   ar
    32    19    27   ar
    33    19    71    1
    34    20    25   ar
    35    20    30   ar
    36    20    72    1
    37    21    26    1
    38    21    33   ar
    39    22    26    1
    40    22    34   ar
    41    23    29    1
    42    23    35   ar
    43    24    29    1
    44    24    37   ar
    45    25    31    1
    46    25    36   ar
    47    26    61    1
    48    26    62    1
    49    27    31    1
    50    27    38   ar
    51    28    32    1
    52    28    39   ar
    53    29    63    1
    54    29    64    1
    55    30    32    1
    56    30    40   ar
    57    31    65    1
    58    31    66    1
    59    32    67    1
    60    32    68    1
    61    33    37   ar
    62    33    41    1
    63    34    39   ar
    64    34    42    1
    65    35    38   ar
    66    35    43    1
    67    36    40   ar
    68    36    44    1
    69    37    45    1
    70    38    46    1
    71    39    47    1
    72    40    48    1
    73    41    49    1
    74    41    73    1
    75    41    74    1
    76    42    50    1
    77    42    75    1
    78    42    76    1
    79    43    51    1
    80    43    77    1
    81    43    78    1
    82    44    52    1
    83    44    79    1
    84    44    80    1
    85    45    53    1
    86    45    81    1
    87    45    82    1
    88    46    54    1
    89    46    83    1
    90    46    84    1
    91    47    55    1
    92    47    85    1
    93    47    86    1
    94    48    56    1
    95    48    87    1
    96    48    88    1
    97    49    57    1
    98    49    89    1
    99    49    90    1
   100    50    58    1
   101    50    91    1
   102    50    92    1
   103    51    59    1
   104    51    93    1
   105    51    94    1
   106    52    60    1
   107    52    95    1
   108    52    96    1
