@<TRIPOS>MOLECULE
zinc_protoporphyrin
 75 82 0 0 0
SMALL
GASTEIGER

@<TRIPOS>ATOM
      1 ZN          1.0140   -0.1490   -0.3920 Zn      1  UNL1        0.0000
      2 C          -2.3200    0.5760   -0.0900 C.2     1  UNL1        0.0000
      3 C           1.6920    3.1860   -0.7490 C.2     1  UNL1        0.0000
      4 C           4.3520   -0.8690   -0.6020 C.2     1  UNL1        0.0000
      5 C           0.2990   -3.4880   -0.0690 C.2     1  UNL1        0.0000
      6 N          -0.1480    1.6310   -0.4140 N.pl3   1  UNL1       -1.0000
      7 C          -1.4950    1.7020   -0.2810 C.2     1  UNL1        0.0000
      8 C          -1.8790    3.0280   -0.3710 C.2     1  UNL1        0.0000
      9 C          -0.7410    3.7680   -0.5520 C.2     1  UNL1        0.0000
     10 C           0.3210    2.8930   -0.5830 C.2     1  UNL1        0.0000
     11 C          -0.6920    5.2670   -0.6990 C.3     1  UNL1        0.0000
     12 C          -3.2870    3.5600   -0.2760 C.3     1  UNL1        0.0000
     13 C          -3.7420    3.8720    1.1470 C.3     1  UNL1        0.0000
     14 C          -5.1710    4.3290    1.2340 C.2     1  UNL1        0.0000
     15 O          -6.1100    3.5810    1.4580 O.2     1  UNL1        0.0000
     16 O          -5.3060    5.6220    1.0420 O.3     1  UNL1        0.0000
     17 N           2.7800    1.0120   -0.6450 N.2     1  UNL1        0.0000
     18 C           2.8360    2.3590   -0.7490 C.2     1  UNL1        0.0000
     19 C           4.1690    2.7540   -0.8400 C.2     1  UNL1        0.0000
     20 C           4.9770    1.5910   -0.7730 C.2     1  UNL1        0.0000
     21 C           4.0820    0.5230   -0.6810 C.2     1  UNL1        0.0000
     22 C           4.6920    4.1620   -0.9500 C.3     1  UNL1        0.0000
     23 C           6.4640    1.6160   -0.8680 C.2     1  UNL1        0.0000
     24 C           7.3970    0.7380   -0.5830 C.2     1  UNL1        0.0000
     25 N           2.1760   -1.9310   -0.3470 N.pl3   1  UNL1       -1.0000
     26 C           3.5250   -1.9970   -0.4180 C.2     1  UNL1        0.0000
     27 C           3.9240   -3.3240   -0.2740 C.2     1  UNL1        0.0000
     28 C           2.7620   -4.1150   -0.0890 C.2     1  UNL1        0.0000
     29 C           1.6910   -3.2240   -0.1720 C.2     1  UNL1        0.0000
     30 C           5.3350   -3.8500   -0.2680 C.3     1  UNL1        0.0000
     31 C           2.7910   -5.5970    0.0720 C.2     1  UNL1        0.0000
     32 C           1.9090   -6.4700    0.5000 C.2     1  UNL1        0.0000
     33 N          -0.7570   -1.2960   -0.1190 N.2     1  UNL1        0.0000
     34 C          -0.8320   -2.6470   -0.0060 C.2     1  UNL1        0.0000
     35 C          -2.1480   -2.9980    0.1920 C.2     1  UNL1        0.0000
     36 C          -2.8900   -1.8490    0.1870 C.2     1  UNL1        0.0000
     37 C          -2.0140   -0.7980   -0.0100 C.2     1  UNL1        0.0000
     38 C          -2.7130   -4.3840    0.3710 C.3     1  UNL1        0.0000
     39 C          -4.3860   -1.7510    0.3550 C.3     1  UNL1        0.0000
     40 C          -5.1650   -1.7800   -0.9570 C.3     1  UNL1        0.0000
     41 C          -6.6540   -1.6870   -0.7730 C.2     1  UNL1        0.0000
     42 O          -7.2780   -0.6390   -0.8170 O.2     1  UNL1        0.0000
     43 O          -7.2160   -2.8560   -0.5600 O.3     1  UNL1        0.0000
     44 H          -3.2390    0.7760    0.0030 H       1  UNL1        0.0000
     45 H           1.8750    4.0970   -0.9180 H       1  UNL1        0.0000
     46 H           5.2600   -1.0770   -0.7540 H       1  UNL1        0.0000
     47 H           0.0970   -4.4100   -0.1070 H       1  UNL1        0.0000
     48 H           0.1990    5.5950   -0.5040 H       1  UNL1        0.0000
     49 H          -1.3150    5.6820   -0.0800 H       1  UNL1        0.0000
     50 H          -0.9320    5.5130   -1.6080 H       1  UNL1        0.0000
     51 H          -3.9080    2.9060   -0.6660 H       1  UNL1        0.0000
     52 H          -3.3730    4.3730   -0.8190 H       1  UNL1        0.0000
     53 H          -3.1600    4.5730    1.5240 H       1  UNL1        0.0000
     54 H          -3.6360    3.0650    1.7020 H       1  UNL1        0.0000
     55 H          -6.1440    5.8780    1.0940 H       1  UNL1        0.0000
     56 H           5.5210    4.2470   -0.4520 H       1  UNL1        0.0000
     57 H           4.0470    4.7880   -0.5850 H       1  UNL1        0.0000
     58 H           4.8550    4.3760   -1.8830 H       1  UNL1        0.0000
     59 H           6.8330    2.4060   -1.2320 H       1  UNL1        0.0000
     60 H           8.3000    0.9370   -0.7680 H       1  UNL1        0.0000
     61 H           7.1730   -0.0740   -0.1600 H       1  UNL1        0.0000
     62 H           5.4110   -4.5860    0.3610 H       1  UNL1        0.0000
     63 H           5.9510   -3.1510   -0.0010 H       1  UNL1        0.0000
     64 H           5.5690   -4.1620   -1.1570 H       1  UNL1        0.0000
     65 H           3.5860   -6.0200   -0.2130 H       1  UNL1        0.0000
     66 H           2.1120   -7.3910    0.4760 H       1  UNL1        0.0000
     67 H           1.0910   -6.1800    0.8670 H       1  UNL1        0.0000
     68 H          -3.2940   -4.4040    1.1490 H       1  UNL1        0.0000
     69 H          -2.0000   -5.0270    0.4990 H       1  UNL1        0.0000
     70 H          -3.2260   -4.6290   -0.4170 H       1  UNL1        0.0000
     71 H          -4.6050   -0.9190    0.8290 H       1  UNL1        0.0000
     72 H          -4.7060   -2.4810    0.9280 H       1  UNL1        0.0000
     73 H          -4.9550   -2.6150   -1.4370 H       1  UNL1        0.0000
     74 H          -4.8700   -1.0290   -1.5210 H       1  UNL1        0.0000
     75 H          -8.0850   -2.7900   -0.4550 H       1  UNL1        0.0000
@<TRIPOS>UNITY_ATOM_ATTR
1 1
charge 2
6 1
charge -1
25 1
charge -1
@<TRIPOS>BOND
     1     1     6    1
     2     1    17    1
     3     1    25    1
     4     1    33    1
     5     2     7    2
     6     2    37    1
     7     2    44    1
     8     3    10    2
     9     3    18    1
    10     3    45    1
    11     4    21    2
    12     4    26    1
    13     4    46    1
    14     5    29    1
    15     5    34    2
    16     5    47    1
    17     6     7    1
    18     6    10    1
    19     7     8    1
    20     8     9    2
    21     8    12    1
    22     9    10    1
    23     9    11    1
    24    11    48    1
    25    11    49    1
    26    11    50    1
    27    12    13    1
    28    12    51    1
    29    12    52    1
    30    13    14    1
    31    13    53    1
    32    13    54    1
    33    14    15    2
    34    14    16    1
    35    16    55    1
    36    17    18    2
    37    17    21    1
    38    18    19    1
    39    19    20    2
    40    19    22    1
    41    20    21    1
    42    20    23    1
    43    22    56    1
    44    22    57    1
    45    22    58    1
    46    23    24    2
    47    23    59    1
    48    24    60    1
    49    24    61    1
    50    25    26    1
    51    25    29    1
    52    26    27    2
    53    27    28    1
    54    27    30    1
    55    28    29    2
    56    28    31    1
    57    30    62    1
    58    30    63    1
    59    30    64    1
    60    31    32    2
    61    31    65    1
    62    32    66    1
    63    32    67    1
    64    33    34    1
    65    33    37    2
    66    34    35    1
    67    35    36    2
    68    35    38    1
    69    36    37    1
    70    36    39    1
    71    38    68    1
    72    38    69    1
    73    38    70    1
    74    39    40    1
    75    39    71    1
    76    39    72    1
    77    40    41    1
    78    40    73    1
    79    40    74    1
    80    41    42    2
    81    41    43    1
    82    43    75    1
