@<TRIPOS>MOLECULE
amp
 37 39 0 0 0
SMALL
GASTEIGER

@<TRIPOS>ATOM
      1 P           4.4798    1.6292    0.0623 P.3     1  UNL1        0.4724
      2 O           1.0170   -0.7489    1.0535 O.3     1  UNL1       -0.3456
      3 O          -0.7355   -2.8912   -1.2399 O.3     1  UNL1       -0.3847
      4 O           1.2625   -3.7185    0.4059 O.3     1  UNL1       -0.3864
      5 O           3.5092    0.4657    0.6332 O.3     1  UNL1       -0.2841
      6 O           3.6381    2.2634   -1.1644 O.3     1  UNL1       -0.3026
      7 O           5.6477    0.7934   -0.6808 O.3     1  UNL1       -0.3026
      8 O           4.9595    2.6141    1.0880 O.2     1  UNL1       -0.2275
      9 N          -1.0832   -0.0675    0.1845 N.ar    1  UNL1       -0.2855
     10 N          -1.7183    2.0201   -0.2812 N.ar    1  UNL1       -0.2306
     11 N          -3.2595   -1.1090    0.4687 N.ar    1  UNL1       -0.2159
     12 N          -5.0643    0.4999    0.1363 N.ar    1  UNL1       -0.2188
     13 N          -4.6558    2.7958   -0.4014 N.pl3   1  UNL1       -0.3413
     14 C           0.2271   -1.9392   -0.8354 C.3     1  UNL1        0.1285
     15 C           1.5341   -2.5673   -0.3934 C.3     1  UNL1        0.1135
     16 C          -0.1975   -1.2041    0.4267 C.3     1  UNL1        0.1667
     17 C           2.1325   -1.4814    0.4954 C.3     1  UNL1        0.1134
     18 C           3.0125   -0.5046   -0.2719 C.3     1  UNL1        0.0878
     19 C          -2.4498   -0.0704    0.2133 C.ar    1  UNL1        0.1674
     20 C          -0.6922    1.2116   -0.1163 C.ar    1  UNL1        0.1004
     21 C          -2.8231    1.2319   -0.0782 C.ar    1  UNL1        0.1473
     22 C          -4.1874    1.5024   -0.1124 C.ar    1  UNL1        0.1472
     23 C          -4.5533   -0.7255    0.4074 C.ar    1  UNL1        0.1205
     24 H           0.3998   -1.2418   -1.6633 H       1  UNL1        0.0665
     25 H           2.1695   -2.8804   -1.2268 H       1  UNL1        0.0647
     26 H          -0.7131   -1.8615    1.1377 H       1  UNL1        0.0866
     27 H           2.6894   -1.8970    1.3428 H       1  UNL1        0.0647
     28 H           2.4371    0.0070   -1.0495 H       1  UNL1        0.0592
     29 H           3.8491   -1.0358   -0.7361 H       1  UNL1        0.0592
     30 H          -0.8430   -3.5351   -0.5192 H       1  UNL1        0.2101
     31 H           2.1174   -4.0681    0.7104 H       1  UNL1        0.2100
     32 H           0.3468    1.4979   -0.2079 H       1  UNL1        0.1030
     33 H          -5.2836   -1.5038    0.6014 H       1  UNL1        0.1048
     34 H          -4.0036    3.5455   -0.5878 H       1  UNL1        0.1438
     35 H          -5.6519    2.9671   -0.4210 H       1  UNL1        0.1438
     36 H           3.9986    3.0463   -1.6326 H       1  UNL1        0.2220
     37 H           6.4224    1.2765   -1.0394 H       1  UNL1        0.2220
@<TRIPOS>BOND
     1     1     5    1
     2     1     6    1
     3     1     7    1
     4     1     8    2
     5     2    16    1
     6     2    17    1
     7     3    14    1
     8     3    30    1
     9     4    15    1
    10     4    31    1
    11     5    18    1
    12     6    36    1
    13     7    37    1
    14     9    16    1
    15     9    19   ar
    16     9    20   ar
    17    10    20   ar
    18    10    21   ar
    19    11    19   ar
    20    11    23   ar
    21    12    22   ar
    22    12    23   ar
    23    13    22    1
    24    13    34    1
    25    13    35    1
    26    14    15    1
    27    14    16    1
    28    14    24    1
    29    15    17    1
    30    15    25    1
    31    16    26    1
    32    17    18    1
    33    17    27    1
    34    18    28    1
    35    18    29    1
    36    19    21   ar
    37    20    32    1
    38    21    22   ar
    39    23    33    1
