@<TRIPOS>MOLECULE
ap4a
 81 86 0 0 0
SMALL
GASTEIGER

@<TRIPOS>ATOM
      1 P           3.6901   -2.9259    0.2895 P.3     1  UNL1        0.4835
      2 P           4.9714    1.9473    3.0990 P.3     1  UNL1        0.4835
      3 P           1.8701   -1.7901    2.2087 P.3     1  UNL1        0.4918
      4 P           2.4459    0.8342    3.7024 P.3     1  UNL1        0.4918
      5 O           5.9409   -4.3736   -0.1223 O.3     1  UNL1       -0.3456
      6 O           3.1886    3.1170    6.5570 O.3     1  UNL1       -0.3456
      7 O           8.1270   -6.8461   -1.5376 O.3     1  UNL1       -0.3847
      8 O           8.1826   -4.4455   -2.5025 O.3     1  UNL1       -0.3864
      9 O           3.8924    6.1036    8.4641 O.3     1  UNL1       -0.3847
     10 O           5.4409    5.7618    6.4289 O.3     1  UNL1       -0.3864
     11 O           3.9376   -2.5268   -1.2924 O.3     1  UNL1       -0.2837
     12 O           4.9844    1.2935    4.6617 O.3     1  UNL1       -0.2837
     13 O           2.9251   -1.6176    0.9887 O.3     1  UNL1       -0.1858
     14 O           3.8134    0.7442    2.6466 O.3     1  UNL1       -0.1858
     15 O           5.1210   -1.9869    0.5418 O.3     1  UNL1       -0.3022
     16 O           6.0712    0.9128    2.4491 O.3     1  UNL1       -0.3022
     17 O           2.4095   -3.7663    0.0638 O.2     1  UNL1       -0.2269
     18 O           6.0077    3.0240    3.5039 O.2     1  UNL1       -0.2269
     19 O           2.1778   -0.8628    3.4998 O.3     1  UNL1       -0.1855
     20 O           0.5212   -1.1358    1.6109 O.3     1  UNL1       -0.3019
     21 O           1.3485    1.0859    2.5163 O.3     1  UNL1       -0.3019
     22 O           1.5853   -3.1946    2.6395 O.2     1  UNL1       -0.2265
     23 O           2.6858    2.3531    3.8836 O.2     1  UNL1       -0.2265
     24 N           6.3355   -6.4051    1.0401 N.ar    1  UNL1       -0.2855
     25 N           1.6282    4.0201    8.1296 N.ar    1  UNL1       -0.2855
     26 N           6.4442   -8.0006    2.6077 N.ar    1  UNL1       -0.2306
     27 N           0.5124    2.9975    9.7569 N.ar    1  UNL1       -0.2306
     28 N           3.9261   -6.0884    0.9301 N.ar    1  UNL1       -0.2159
     29 N           0.5297    6.1992    8.1798 N.ar    1  UNL1       -0.2159
     30 N           2.7523   -7.5744    2.4505 N.ar    1  UNL1       -0.2188
     31 N          -1.1352    6.3130    9.9508 N.ar    1  UNL1       -0.2188
     32 N           3.8285   -9.1724    3.7986 N.pl3   1  UNL1       -0.3413
     33 N          -1.6570    4.5169   11.3776 N.pl3   1  UNL1       -0.3413
     34 C           6.9095   -6.1217   -1.3594 C.3     1  UNL1        0.1285
     35 C           6.8337   -4.8982   -2.2700 C.3     1  UNL1        0.1135
     36 C           3.9696    4.7540    8.0228 C.3     1  UNL1        0.1285
     37 C           5.0960    4.4919    7.0159 C.3     1  UNL1        0.1135
     38 C           6.8208   -5.4962    0.0216 C.3     1  UNL1        0.1667
     39 C           2.7389    4.3117    7.2465 C.3     1  UNL1        0.1667
     40 C           6.0253   -3.8665   -1.4763 C.3     1  UNL1        0.1134
     41 C           4.5010    3.4520    6.0136 C.3     1  UNL1        0.1134
     42 C           4.6096   -3.5777   -2.0260 C.3     1  UNL1        0.0879
     43 C           5.3556    2.1536    5.7890 C.3     1  UNL1        0.0879
     44 C           5.0430   -6.6623    1.3966 C.ar    1  UNL1        0.1674
     45 C           0.7093    4.9328    8.5814 C.ar    1  UNL1        0.1674
     46 C           7.1382   -7.2286    1.7945 C.ar    1  UNL1        0.1004
     47 C           1.4516    2.8688    8.8462 C.ar    1  UNL1        0.1004
     48 C           5.1260   -7.6636    2.3474 C.ar    1  UNL1        0.1473
     49 C           0.0369    4.2823    9.6035 C.ar    1  UNL1        0.1473
     50 C           3.9045   -8.1483    2.8702 C.ar    1  UNL1        0.1472
     51 C          -0.9321    5.0245   10.3017 C.ar    1  UNL1        0.1472
     52 C           2.8236   -6.5903    1.5249 C.ar    1  UNL1        0.1205
     53 C          -0.4142    6.8159    8.9319 C.ar    1  UNL1        0.1205
     54 H           6.0624   -6.7908   -1.5456 H       1  UNL1        0.0665
     55 H           6.4071   -5.1349   -3.2486 H       1  UNL1        0.0647
     56 H           4.1179    4.1230    8.9069 H       1  UNL1        0.0665
     57 H           5.9891    4.1225    7.5296 H       1  UNL1        0.0647
     58 H           7.7917   -5.1170    0.3659 H       1  UNL1        0.0866
     59 H           2.4037    5.0530    6.5095 H       1  UNL1        0.0866
     60 H           6.5649   -2.9137   -1.4176 H       1  UNL1        0.0647
     61 H           4.3174    3.9477    5.0562 H       1  UNL1        0.0647
     62 H           3.9837   -4.4754   -1.9923 H       1  UNL1        0.0592
     63 H           4.6760   -3.2420   -3.0657 H       1  UNL1        0.0592
     64 H           5.2775    1.5248    6.6815 H       1  UNL1        0.0592
     65 H           6.4164    2.4135    5.6858 H       1  UNL1        0.0592
     66 H           8.7048   -6.2828   -2.0959 H       1  UNL1        0.2101
     67 H           8.4483   -3.8290   -1.7950 H       1  UNL1        0.2100
     68 H           4.4206    6.6342    7.8316 H       1  UNL1        0.2101
     69 H           5.0777    5.8263    5.5282 H       1  UNL1        0.2100
     70 H           8.2194   -7.2308    1.6949 H       1  UNL1        0.1030
     71 H           2.0583    1.9870    8.6897 H       1  UNL1        0.1030
     72 H           1.8751   -6.1509    1.2280 H       1  UNL1        0.1048
     73 H          -0.6078    7.8607    8.6923 H       1  UNL1        0.1048
     74 H           4.6864   -9.3085    4.3184 H       1  UNL1        0.1438
     75 H           2.9564   -9.1510    4.3105 H       1  UNL1        0.1438
     76 H          -1.2007    3.7190   11.8079 H       1  UNL1        0.1438
     77 H          -1.9584    5.2635   11.9913 H       1  UNL1        0.1438
     78 H           4.9442   -1.1245    0.1160 H       1  UNL1        0.2220
     79 H           6.1194    0.1243    3.0152 H       1  UNL1        0.2220
     80 H           0.0710   -1.7686    1.0185 H       1  UNL1        0.2220
     81 H           0.4269    0.8757    2.7559 H       1  UNL1        0.2220
@<TRIPOS>BOND
     1     1    11    1
     2     1    13    1
     3     1    15    1
     4     1    17    2
     5     2    12    1
     6     2    14    1
     7     2    16    1
     8     2    18    2
     9     3    13    1
    10     3    19    1
    11     3    20    1
    12     3    22    2
    13     4    14    1
    14     4    19    1
    15     4    21    1
    16     4    23    2
    17     5    38    1
    18     5    40    1
    19     6    39    1
    20     6    41    1
    21    34     7    1
    22     7    66    1
    23    35     8    1
    24     8    67    1
    25    36     9    1
    26     9    68    1
    27    37    10    1
    28    10    69    1
    29    11    42    1
    30    12    43    1
    31    15    78    1
    32    16    79    1
    33    20    80    1
    34    21    81    1
    35    24    44   ar
    36    24    46   ar
    37    25    45   ar
    38    25    47   ar
    39    26    46   ar
    40    26    48   ar
    41    27    47   ar
    42    27    49   ar
    43    28    44   ar
    44    28    52   ar
    45    29    45   ar
    46    29    53   ar
    47    30    50   ar
    48    30    52   ar
    49    31    51   ar
    50    31    53   ar
    51    32    50    1
    52    32    74    1
    53    32    75    1
    54    33    51    1
    55    33    76    1
    56    33    77    1
    57    34    35    1
    58    34    38    1
    59    34    54    1
    60    35    40    1
    61    35    55    1
    62    36    37    1
    63    36    39    1
    64    36    56    1
    65    37    41    1
    66    37    57    1
    67    40    42    1
    68    40    60    1
    69    41    43    1
    70    41    61    1
    71    42    62    1
    72    42    63    1
    73    43    64    1
    74    43    65    1
    75    44    48   ar
    76    45    49   ar
    77    46    70    1
    78    47    71    1
    79    48    50   ar
    80    49    51   ar
    81    52    72    1
    82    53    73    1
    83    38    58    1
    84    38    24    1
    85    39    59    1
    86    39    25    1
