@<TRIPOS>MOLECULE
atp
 47 49 0 0 0
SMALL
GASTEIGER

@<TRIPOS>ATOM
      1 P           2.4265   -1.6857   -1.6031 P.3     1  UNL1        0.4835
      2 P           3.9689    0.2041    0.0446 P.3     1  UNL1        0.4918
      3 P           2.2747    1.3030    2.1955 P.3     1  UNL1        0.4808
      4 O          -1.0178   -1.3778    0.9927 O.3     1  UNL1       -0.3456
      5 O          -4.3652   -2.3641    0.1309 O.3     1  UNL1       -0.3847
      6 O          -2.5758   -3.9668    1.4015 O.3     1  UNL1       -0.3864
      7 O           1.3208   -1.9591   -0.4537 O.3     1  UNL1       -0.2837
      8 O           3.7219   -1.1490   -0.8007 O.3     1  UNL1       -0.1858
      9 O           2.8767   -3.1624   -2.0870 O.3     1  UNL1       -0.3022
     10 O           1.9724   -0.7820   -2.7124 O.2     1  UNL1       -0.2269
     11 O           2.7556    0.2051    1.1116 O.3     1  UNL1       -0.1859
     12 O           3.5653    1.3830   -0.9853 O.3     1  UNL1       -0.3019
     13 O           5.3343    0.3384    0.6516 O.2     1  UNL1       -0.2265
     14 O           1.7777    2.5340    1.2735 O.3     1  UNL1       -0.3023
     15 O           0.8978    0.6865    2.7749 O.3     1  UNL1       -0.3023
     16 O           3.3046    1.6552    3.2283 O.2     1  UNL1       -0.2271
     17 N          -2.6388    0.2831    0.4989 N.ar    1  UNL1       -0.2855
     18 N          -3.6007    2.2916    0.3624 N.ar    1  UNL1       -0.2306
     19 N          -0.7069    0.6511   -0.9276 N.ar    1  UNL1       -0.2159
     20 N          -0.6820    2.9223   -1.8204 N.ar    1  UNL1       -0.2188
     21 N          -2.3836    4.5242   -1.3048 N.pl3   1  UNL1       -0.3413
     22 C          -2.9897   -2.1242   -0.0859 C.3     1  UNL1        0.1285
     23 C          -2.1230   -3.3336    0.2049 C.3     1  UNL1        0.1135
     24 C          -2.4294   -1.1072    0.8967 C.3     1  UNL1        0.1667
     25 C          -0.7601   -2.7011    0.4686 C.3     1  UNL1        0.1134
     26 C           0.0836   -2.5627   -0.7909 C.3     1  UNL1        0.0879
     27 C          -1.8410    1.0320   -0.3205 C.ar    1  UNL1        0.1674
     28 C          -3.6828    1.0847    0.8822 C.ar    1  UNL1        0.1004
     29 C          -2.4541    2.2726   -0.3915 C.ar    1  UNL1        0.1473
     30 C          -1.8319    3.2377   -1.1771 C.ar    1  UNL1        0.1472
     31 C          -0.1981    1.6671   -1.6580 C.ar    1  UNL1        0.1205
     32 H          -2.8499   -1.7973   -1.1228 H       1  UNL1        0.0665
     33 H          -2.1212   -4.0831   -0.5917 H       1  UNL1        0.0647
     34 H          -2.8607   -1.2132    1.8999 H       1  UNL1        0.0866
     35 H          -0.1966   -3.2397    1.2389 H       1  UNL1        0.0647
     36 H          -0.4109   -1.9406   -1.5424 H       1  UNL1        0.0592
     37 H           0.2771   -3.5479   -1.2272 H       1  UNL1        0.0592
     38 H          -4.4943   -2.5765    1.0706 H       1  UNL1        0.2101
     39 H          -3.4307   -4.3847    1.2014 H       1  UNL1        0.2100
     40 H          -4.4692    0.7349    1.5371 H       1  UNL1        0.1030
     41 H           0.7256    1.4585   -2.1836 H       1  UNL1        0.1048
     42 H          -3.2418    4.7619   -0.8261 H       1  UNL1        0.1438
     43 H          -1.9130    5.2080   -1.8817 H       1  UNL1        0.1438
     44 H           2.3128   -3.6443   -2.7289 H       1  UNL1        0.2220
     45 H           4.2015    1.6396   -1.6863 H       1  UNL1        0.2220
     46 H           1.5146    3.3749    1.7047 H       1  UNL1        0.2220
     47 H           0.4457    1.1452    3.5146 H       1  UNL1        0.2220
@<TRIPOS>BOND
     1     1     7    1
     2     1     8    1
     3     1     9    1
     4     1    10    2
     5     2     8    1
     6     2    11    1
     7     2    12    1
     8     2    13    2
     9     3    11    1
    10     3    14    1
    11     3    15    1
    12     3    16    2
    13     4    24    1
    14     4    25    1
    15     5    22    1
    16     5    38    1
    17     6    23    1
    18     6    39    1
    19     7    26    1
    20     9    44    1
    21    12    45    1
    22    14    46    1
    23    15    47    1
    24    17    24    1
    25    17    27   ar
    26    17    28   ar
    27    18    28   ar
    28    18    29   ar
    29    19    27   ar
    30    19    31   ar
    31    20    30   ar
    32    20    31   ar
    33    21    30    1
    34    21    42    1
    35    21    43    1
    36    22    23    1
    37    22    24    1
    38    22    32    1
    39    23    25    1
    40    23    33    1
    41    24    34    1
    42    25    26    1
    43    25    35    1
    44    26    36    1
    45    26    37    1
    46    27    29   ar
    47    28    40    1
    48    29    30   ar
    49    31    41    1
