@<TRIPOS>MOLECULE
camp
 34 37 0 0 0
SMALL
GASTEIGER

@<TRIPOS>ATOM
      1 P           4.5156    0.2791   -0.6420 P.3     1  UNL1        0.4754
      2 O           0.8542   -0.0149    1.6387 O.3     1  UNL1       -0.3456
      3 O           3.2112   -0.6361   -0.9736 O.3     1  UNL1       -0.2779
      4 O           4.4204    0.6259    0.9430 O.3     1  UNL1       -0.2840
      5 O           1.2478   -2.5134   -0.3356 O.3     1  UNL1       -0.3846
      6 O           4.2105    1.6927   -1.3701 O.3     1  UNL1       -0.3025
      7 O           5.8209   -0.3381   -1.0563 O.2     1  UNL1       -0.2273
      8 N          -1.1765    0.0756    0.3969 N.ar    1  UNL1       -0.2855
      9 N          -2.3768    1.9002   -0.0529 N.ar    1  UNL1       -0.2306
     10 N          -2.9033   -1.6203    0.1885 N.ar    1  UNL1       -0.2159
     11 N          -5.0567   -0.6269   -0.3878 N.ar    1  UNL1       -0.2188
     12 N          -5.3444    1.7291   -0.6929 N.pl3   1  UNL1       -0.3413
     13 C           2.0067   -0.2287   -0.3650 C.3     1  UNL1        0.1283
     14 C           2.1801   -0.1747    1.1384 C.3     1  UNL1        0.1142
     15 C           0.8240   -1.1619   -0.4871 C.3     1  UNL1        0.1294
     16 C          -0.0169   -0.7498    0.7363 C.3     1  UNL1        0.1667
     17 C           3.1482    0.9272    1.5188 C.3     1  UNL1        0.0879
     18 C          -2.4502   -0.3579    0.1600 C.ar    1  UNL1        0.1674
     19 C          -1.1835    1.4386    0.2578 C.ar    1  UNL1        0.1004
     20 C          -3.1783    0.7881   -0.1173 C.ar    1  UNL1        0.1473
     21 C          -4.5306    0.6214   -0.3990 C.ar    1  UNL1        0.1472
     22 C          -4.2227   -1.6551   -0.0989 C.ar    1  UNL1        0.1205
     23 H           1.7150    0.7525   -0.7603 H       1  UNL1        0.0656
     24 H           2.5832   -1.1268    1.5120 H       1  UNL1        0.0647
     25 H           0.3089   -1.0775   -1.4487 H       1  UNL1        0.0666
     26 H          -0.3933   -1.6175    1.2906 H       1  UNL1        0.0866
     27 H           2.8100    1.9107    1.1759 H       1  UNL1        0.0592
     28 H           3.2599    0.9847    2.6060 H       1  UNL1        0.0592
     29 H           0.4509   -3.0705   -0.3555 H       1  UNL1        0.2101
     30 H          -0.2969    2.0441    0.3890 H       1  UNL1        0.1030
     31 H           3.3938    2.1878   -1.1485 H       1  UNL1        0.2220
     32 H          -4.6776   -2.6398   -0.0989 H       1  UNL1        0.1048
     33 H          -6.3239    1.5821   -0.8949 H       1  UNL1        0.1438
     34 H          -4.9540    2.6617   -0.7024 H       1  UNL1        0.1438
@<TRIPOS>BOND
     1     1     3    1
     2     1     4    1
     3     1     6    1
     4     1     7    2
     5     2    14    1
     6     2    16    1
     7     3    13    1
     8     4    17    1
     9     5    15    1
    10     5    29    1
    11     6    31    1
    12     8    16    1
    13     8    18   ar
    14     8    19   ar
    15     9    19   ar
    16     9    20   ar
    17    10    18   ar
    18    10    22   ar
    19    11    21   ar
    20    11    22   ar
    21    12    21    1
    22    12    33    1
    23    12    34    1
    24    13    14    1
    25    13    15    1
    26    13    23    1
    27    14    17    1
    28    14    24    1
    29    15    16    1
    30    15    25    1
    31    16    26    1
    32    17    27    1
    33    17    28    1
    34    18    20   ar
    35    19    30    1
    36    20    21   ar
    37    22    32    1
