@<TRIPOS>MOLECULE
cdp
 40 41 0 0 0
SMALL
GASTEIGER

@<TRIPOS>ATOM
      1 P          -3.1507    0.9273    0.8617 P.3     1  UNL1        0.4834
      2 P          -3.9672   -1.3244   -0.8463 P.3     1  UNL1        0.4808
      3 O           1.1234    1.4816    1.1104 O.3     1  UNL1       -0.3456
      4 O           2.2404    3.9203   -0.2294 O.3     1  UNL1       -0.3864
      5 O           3.2851    1.8903   -1.7215 O.3     1  UNL1       -0.3847
      6 O          -1.6795    1.5731    1.0562 O.3     1  UNL1       -0.2837
      7 O           4.5655   -0.5355    0.1657 O.2     1  UNL1       -0.2444
      8 O          -2.9160   -0.3257   -0.1326 O.3     1  UNL1       -0.1862
      9 O          -3.9395    1.9932   -0.0651 O.3     1  UNL1       -0.3022
     10 O          -3.8571    0.5753    2.1387 O.2     1  UNL1       -0.2269
     11 O          -4.6174   -2.1233    0.3993 O.3     1  UNL1       -0.3023
     12 O          -3.0167   -2.4273   -1.5482 O.3     1  UNL1       -0.3023
     13 O          -4.9502   -0.6514   -1.7580 O.2     1  UNL1       -0.2271
     14 N           2.2659   -0.3837    0.2858 N.ar    1  UNL1       -0.2700
     15 N           3.4247   -2.4978    0.1804 N.ar    1  UNL1       -0.1783
     16 N           2.2498   -4.5046    0.1939 N.pl3   1  UNL1       -0.3430
     17 C           1.3282    2.9478   -0.7389 C.3     1  UNL1        0.1135
     18 C           2.0581    1.6606   -1.0597 C.3     1  UNL1        0.1286
     19 C           0.4134    2.5203    0.4007 C.3     1  UNL1        0.1134
     20 C           2.2429    1.0509    0.3192 C.3     1  UNL1        0.1680
     21 C          -0.9143    1.9466   -0.0761 C.3     1  UNL1        0.0879
     22 C           1.0622   -1.0701    0.3299 C.ar    1  UNL1        0.0152
     23 C           3.4785   -1.1146    0.2083 C.ar    1  UNL1        0.3522
     24 C           0.9892   -2.3994    0.3028 C.ar    1  UNL1       -0.0056
     25 C           2.2812   -3.1296    0.2229 C.ar    1  UNL1        0.1230
     26 H           0.8139    3.3904   -1.5958 H       1  UNL1        0.0647
     27 H           1.4314    1.0304   -1.7022 H       1  UNL1        0.0665
     28 H           0.2350    3.3286    1.1190 H       1  UNL1        0.0647
     29 H           3.1607    1.4125    0.7978 H       1  UNL1        0.0867
     30 H          -0.7831    1.0790   -0.7270 H       1  UNL1        0.0592
     31 H          -1.4639    2.7103   -0.6362 H       1  UNL1        0.0592
     32 H           2.6306    3.5873    0.5959 H       1  UNL1        0.2100
     33 H           3.7322    1.0318   -1.8131 H       1  UNL1        0.2101
     34 H           0.1435   -0.5084    0.3912 H       1  UNL1        0.0812
     35 H           0.0534   -2.9411    0.3375 H       1  UNL1        0.0666
     36 H          -4.3196    2.7950    0.3529 H       1  UNL1        0.2220
     37 H           1.3785   -5.0237    0.2260 H       1  UNL1        0.1437
     38 H           3.1073   -5.0438    0.1401 H       1  UNL1        0.1437
     39 H          -5.3606   -2.7411    0.2314 H       1  UNL1        0.2220
     40 H          -3.4252   -3.1116   -2.1200 H       1  UNL1        0.2220
@<TRIPOS>BOND
     1     1     6    1
     2     1     8    1
     3     1     9    1
     4     1    10    2
     5     2     8    1
     6     2    11    1
     7     2    12    1
     8     2    13    2
     9     3    19    1
    10     3    20    1
    11     4    17    1
    12     4    32    1
    13     5    18    1
    14     5    33    1
    15     6    21    1
    16     7    23    2
    17     9    36    1
    18    11    39    1
    19    12    40    1
    20    14    20    1
    21    14    22   ar
    22    14    23   ar
    23    15    23   ar
    24    15    25   ar
    25    16    25    1
    26    16    37    1
    27    16    38    1
    28    17    18    1
    29    17    19    1
    30    17    26    1
    31    18    20    1
    32    18    27    1
    33    19    21    1
    34    19    28    1
    35    20    29    1
    36    21    30    1
    37    21    31    1
    38    22    24   ar
    39    22    34    1
    40    24    25   ar
    41    24    35    1
