@<TRIPOS>MOLECULE
cgmp
 35 38 0 0 0
SMALL
GASTEIGER

@<TRIPOS>ATOM
      1 P          -2.1839    0.7631   -0.0570 P.3     1  UNL1        0.4754
      2 O           1.6688   -1.2388   -0.0772 O.3     1  UNL1       -0.3456
      3 O          -0.7214    1.4352    0.0002 O.3     1  UNL1       -0.2779
      4 O          -1.9771   -0.8231    0.1266 O.3     1  UNL1       -0.2840
      5 O           1.7092    1.7098    1.2710 O.3     1  UNL1       -0.3846
      6 O          -2.6310    1.2245    1.4046 O.3     1  UNL1       -0.3025
      7 O          -3.0427    1.2327   -1.1782 O.2     1  UNL1       -0.2273
      8 O           4.7890   -0.0052   -5.6833 O.2     1  UNL1       -0.2654
      9 N           3.3581   -0.2042   -1.3727 N.ar    1  UNL1       -0.2854
     10 N           5.1802   -0.1011   -2.6562 N.ar    1  UNL1       -0.2286
     11 N           1.6276   -0.3022   -3.0866 N.ar    1  UNL1       -0.1963
     12 N           2.5565   -0.1112   -5.2517 N.ar    1  UNL1       -0.2934
     13 N           0.2543   -0.2481   -4.9423 N.pl3   1  UNL1       -0.3289
     14 C           0.3567    0.6745   -0.4689 C.3     1  UNL1        0.1283
     15 C           0.3776   -0.6960    0.1702 C.3     1  UNL1        0.1142
     16 C           1.7276    1.1847   -0.0694 C.3     1  UNL1        0.1294
     17 C           2.5741   -0.1038   -0.1614 C.3     1  UNL1        0.1667
     18 C          -0.8072   -1.4675   -0.3598 C.3     1  UNL1        0.0879
     19 C           2.9150   -0.2483   -2.6653 C.ar    1  UNL1        0.1712
     20 C           4.7298   -0.1371   -1.4194 C.ar    1  UNL1        0.1005
     21 C           4.0505   -0.1599   -3.4352 C.ar    1  UNL1        0.1721
     22 C           3.8913   -0.0904   -4.8687 C.ar    1  UNL1        0.2803
     23 C           1.4901   -0.2280   -4.3827 C.ar    1  UNL1        0.1950
     24 H           0.2699    0.6200   -1.5517 H       1  UNL1        0.0656
     25 H           0.2517   -0.6045    1.2586 H       1  UNL1        0.0647
     26 H           2.0806    1.9951   -0.7137 H       1  UNL1        0.0666
     27 H           3.2584   -0.1789    0.6894 H       1  UNL1        0.0866
     28 H          -0.7932   -2.4967    0.0119 H       1  UNL1        0.0592
     29 H          -0.8237   -1.5194   -1.4540 H       1  UNL1        0.0592
     30 H           1.6424    0.9834    1.9142 H       1  UNL1        0.2101
     31 H           5.3457   -0.0964   -0.5288 H       1  UNL1        0.1030
     32 H          -1.8402    1.5326    1.8902 H       1  UNL1        0.2220
     33 H           2.3985   -0.0644   -6.2423 H       1  UNL1        0.1716
     34 H          -0.5124   -0.0715   -4.3017 H       1  UNL1        0.1451
     35 H           0.1213    0.1581   -5.8580 H       1  UNL1        0.1451
@<TRIPOS>BOND
     1     1     3    1
     2     1     4    1
     3     1     6    1
     4     1     7    2
     5     2    15    1
     6     2    17    1
     7     3    14    1
     8     4    18    1
     9    16     5    1
    10     5    30    1
    11     6    32    1
    12     8    22    2
    13     9    19   ar
    14     9    20   ar
    15    10    20   ar
    16    10    21   ar
    17    11    19   ar
    18    11    23   ar
    19    12    22   ar
    20    12    23   ar
    21    12    33    1
    22    13    23    1
    23    13    34    1
    24    13    35    1
    25    14    15    1
    26    14    16    1
    27    14    24    1
    28    15    18    1
    29    15    25    1
    30    16    17    1
    31    16    26    1
    32    18    28    1
    33    18    29    1
    34    19    21   ar
    35    20    31    1
    36    21    22   ar
    37    17    27    1
    38    17     9    1
