@<TRIPOS>MOLECULE
cmp
 35 36 0 0 0
SMALL
GASTEIGER

@<TRIPOS>ATOM
      1 P           3.7758   -1.4347   -0.0428 P.3     1  UNL1        0.4724
      2 O           0.3638    0.9713   -1.1338 O.3     1  UNL1       -0.3456
      3 O           0.4731    3.8624   -0.3465 O.3     1  UNL1       -0.3864
      4 O          -1.5536    2.8996    1.2039 O.3     1  UNL1       -0.3847
      5 O           2.8369   -0.2450   -0.6124 O.3     1  UNL1       -0.2841
      6 O          -3.6913    1.0267   -0.5308 O.2     1  UNL1       -0.2444
      7 O           2.8506   -2.1535    1.0720 O.3     1  UNL1       -0.3026
      8 O           4.8719   -0.6389    0.8406 O.3     1  UNL1       -0.3026
      9 O           4.3463   -2.3475   -1.0886 O.2     1  UNL1       -0.2275
     10 N          -1.6106    0.0620   -0.2739 N.ar    1  UNL1       -0.2700
     11 N          -3.6596   -1.1986   -0.0850 N.ar    1  UNL1       -0.1783
     12 N          -3.6204   -3.4781    0.3738 N.pl3   1  UNL1       -0.3430
     13 C           0.7459    2.7017    0.4383 C.3     1  UNL1        0.1135
     14 C          -0.5447    1.9970    0.7996 C.3     1  UNL1        0.1286
     15 C           1.4277    1.6781   -0.4593 C.3     1  UNL1        0.1134
     16 C          -0.8860    1.2808   -0.4957 C.3     1  UNL1        0.1680
     17 C           2.2590    0.6610    0.3110 C.3     1  UNL1        0.0878
     18 C          -0.8978   -1.0992   -0.0179 C.ar    1  UNL1        0.0152
     19 C          -3.0273    0.0127   -0.3078 C.ar    1  UNL1        0.3522
     20 C          -1.4871   -2.2734    0.2001 C.ar    1  UNL1       -0.0056
     21 C          -2.9725   -2.2845    0.1549 C.ar    1  UNL1        0.1230
     22 H           1.3357    3.0156    1.3033 H       1  UNL1        0.0647
     23 H          -0.3637    1.2910    1.6190 H       1  UNL1        0.0665
     24 H           2.0391    2.1473   -1.2386 H       1  UNL1        0.0647
     25 H          -1.4651    1.9239   -1.1690 H       1  UNL1        0.0867
     26 H           1.6620    0.1096    1.0412 H       1  UNL1        0.0592
     27 H           3.0591    1.1799    0.8492 H       1  UNL1        0.0592
     28 H           0.0416    3.5915   -1.1738 H       1  UNL1        0.2100
     29 H          -2.3694    2.3864    1.3330 H       1  UNL1        0.2101
     30 H           0.1797   -1.0555    0.0036 H       1  UNL1        0.0812
     31 H          -0.9372   -3.1834    0.3993 H       1  UNL1        0.0666
     32 H          -3.1153   -4.3376    0.5629 H       1  UNL1        0.1437
     33 H          -4.6331   -3.5322    0.3530 H       1  UNL1        0.1437
     34 H           3.1839   -2.9622    1.5157 H       1  UNL1        0.2220
     35 H           5.6230   -1.1377    1.2269 H       1  UNL1        0.2220
@<TRIPOS>BOND
     1     1     5    1
     2     1     7    1
     3     1     8    1
     4     1     9    2
     5     2    15    1
     6     2    16    1
     7     3    13    1
     8     3    28    1
     9     4    14    1
    10     4    29    1
    11     5    17    1
    12     6    19    2
    13     7    34    1
    14     8    35    1
    15    10    16    1
    16    10    18   ar
    17    10    19   ar
    18    11    19   ar
    19    11    21   ar
    20    12    21    1
    21    12    32    1
    22    12    33    1
    23    13    14    1
    24    13    15    1
    25    13    22    1
    26    14    16    1
    27    14    23    1
    28    15    17    1
    29    15    24    1
    30    16    25    1
    31    17    26    1
    32    17    27    1
    33    18    20   ar
    34    18    30    1
    35    20    21   ar
    36    20    31    1
