@<TRIPOS>MOLECULE
ctp
 45 46 0 0 0
SMALL
GASTEIGER

@<TRIPOS>ATOM
      1 P           1.6103   -2.3672   -0.0408 P.3     1  UNL1        0.4835
      2 P           4.2200   -1.2159    0.6872 P.3     1  UNL1        0.4918
      3 P           4.6127    1.3699   -0.6776 P.3     1  UNL1        0.4808
      4 O          -1.1349    0.8398   -0.9737 O.3     1  UNL1       -0.3456
      5 O          -0.4334    3.5533    0.0915 O.3     1  UNL1       -0.3864
      6 O          -2.6989    2.9366    1.4792 O.3     1  UNL1       -0.3847
      7 O           0.9831   -0.9452   -0.4908 O.3     1  UNL1       -0.2837
      8 O          -5.1040    1.7476   -0.4925 O.2     1  UNL1       -0.2444
      9 O           2.8225   -1.9792    0.9542 O.3     1  UNL1       -0.1858
     10 O           0.5023   -2.9984    0.9547 O.3     1  UNL1       -0.3022
     11 O           2.0093   -3.2671   -1.1741 O.2     1  UNL1       -0.2269
     12 O           3.7631    0.1662   -0.0136 O.3     1  UNL1       -0.1859
     13 O           4.8907   -2.0490   -0.5250 O.3     1  UNL1       -0.3019
     14 O           5.0955   -1.0447    1.8936 O.2     1  UNL1       -0.2265
     15 O           3.4804    2.4714   -1.0201 O.3     1  UNL1       -0.3023
     16 O           5.3997    2.0164    0.5771 O.3     1  UNL1       -0.3023
     17 O           5.4759    0.9620   -1.8351 O.2     1  UNL1       -0.2271
     18 N          -3.3022    0.3235   -0.2662 N.ar    1  UNL1       -0.2700
     19 N          -5.5851   -0.4587   -0.2625 N.ar    1  UNL1       -0.1783
     20 N          -6.0713   -2.7204   -0.0246 N.pl3   1  UNL1       -0.3430
     21 C          -0.4630    2.2971    0.7688 C.3     1  UNL1        0.1135
     22 C          -1.8936    1.8701    1.0208 C.3     1  UNL1        0.1286
     23 C           0.0224    1.2293   -0.2020 C.3     1  UNL1        0.1134
     24 C          -2.3171    1.3640   -0.3473 C.3     1  UNL1        0.1680
     25 C           0.5692   -0.0112    0.4918 C.3     1  UNL1        0.0879
     26 C          -2.8761   -0.9855   -0.1016 C.ar    1  UNL1        0.0152
     27 C          -4.6915    0.5953   -0.3481 C.ar    1  UNL1        0.3522
     28 C          -3.7193   -2.0125   -0.0159 C.ar    1  UNL1       -0.0056
     29 C          -5.1666   -1.6873   -0.1076 C.ar    1  UNL1        0.1230
     30 H           0.1368    2.3943    1.6773 H       1  UNL1        0.0647
     31 H          -1.9223    1.0690    1.7692 H       1  UNL1        0.0665
     32 H           0.7599    1.6151   -0.9142 H       1  UNL1        0.0647
     33 H          -2.7055    2.1765   -0.9726 H       1  UNL1        0.0867
     34 H          -0.1746   -0.4802    1.1404 H       1  UNL1        0.0592
     35 H           1.4252    0.2624    1.1155 H       1  UNL1        0.0592
     36 H          -0.8705    3.4588   -0.7710 H       1  UNL1        0.2100
     37 H          -2.2979    3.2743    2.2982 H       1  UNL1        0.2101
     38 H          -1.8180   -1.1860   -0.0438 H       1  UNL1        0.0812
     39 H          -3.3936   -3.0364    0.1110 H       1  UNL1        0.0666
     40 H          -0.2884   -3.4329    0.5697 H       1  UNL1        0.2220
     41 H          -7.0686   -2.5447   -0.0815 H       1  UNL1        0.1437
     42 H          -5.7777   -3.6841    0.0962 H       1  UNL1        0.1437
     43 H           5.3324   -2.9021   -0.3274 H       1  UNL1        0.2220
     44 H           3.7350    3.2740   -1.5231 H       1  UNL1        0.2220
     45 H           6.0536    2.7286    0.4118 H       1  UNL1        0.2220
@<TRIPOS>BOND
     1     1     7    1
     2     1     9    1
     3     1    10    1
     4     1    11    2
     5     2     9    1
     6     2    12    1
     7     2    13    1
     8     2    14    2
     9     3    12    1
    10     3    15    1
    11     3    16    1
    12     3    17    2
    13     4    23    1
    14     4    24    1
    15     5    21    1
    16     5    36    1
    17     6    22    1
    18     6    37    1
    19     7    25    1
    20     8    27    2
    21    10    40    1
    22    13    43    1
    23    15    44    1
    24    16    45    1
    25    18    24    1
    26    18    26   ar
    27    18    27   ar
    28    19    27   ar
    29    19    29   ar
    30    20    29    1
    31    20    41    1
    32    20    42    1
    33    21    22    1
    34    21    23    1
    35    21    30    1
    36    22    24    1
    37    22    31    1
    38    23    25    1
    39    23    32    1
    40    24    33    1
    41    25    34    1
    42    25    35    1
    43    26    28   ar
    44    26    38    1
    45    28    29   ar
    46    28    39    1
