@<TRIPOS>MOLECULE
damp
 36 38 0 0 0
SMALL
GASTEIGER

@<TRIPOS>ATOM
      1 P          -4.4627   -1.5335    0.1397 P.3     1  UNL1        0.4724
      2 O          -0.9918    0.8942    0.9218 O.3     1  UNL1       -0.3484
      3 O          -1.2828    3.8450    0.0623 O.3     1  UNL1       -0.3890
      4 O          -3.4835   -0.3373    0.6215 O.3     1  UNL1       -0.2841
      5 O          -3.6411   -2.2425   -1.0592 O.3     1  UNL1       -0.3026
      6 O          -5.6433   -0.7447   -0.6341 O.3     1  UNL1       -0.3026
      7 O          -4.9248   -2.4528    1.2322 O.2     1  UNL1       -0.2275
      8 N           1.1235    0.2077    0.0958 N.ar    1  UNL1       -0.2879
      9 N           1.8041   -1.8875   -0.2677 N.ar    1  UNL1       -0.2306
     10 N           3.2777    1.3018    0.3536 N.ar    1  UNL1       -0.2159
     11 N           5.1160   -0.2854    0.1133 N.ar    1  UNL1       -0.2188
     12 N           4.7568   -2.6109   -0.3229 N.pl3   1  UNL1       -0.3413
     13 C          -1.5312    2.6223   -0.6281 C.3     1  UNL1        0.0877
     14 C           0.2157    1.3346    0.2766 C.3     1  UNL1        0.1408
     15 C          -2.1105    1.5972    0.3410 C.3     1  UNL1        0.1108
     16 C          -0.2028    2.0157   -1.0184 C.3     1  UNL1        0.0213
     17 C          -3.0025    0.5751   -0.3499 C.3     1  UNL1        0.0878
     18 C           2.4905    0.2371    0.1380 C.ar    1  UNL1        0.1673
     19 C           0.7611   -1.0924   -0.1503 C.ar    1  UNL1        0.1003
     20 C           2.8916   -1.0696   -0.0899 C.ar    1  UNL1        0.1473
     21 C           4.2610   -1.3149   -0.0981 C.ar    1  UNL1        0.1472
     22 C           4.5790    0.9409    0.3229 C.ar    1  UNL1        0.1205
     23 H          -2.1770    2.8473   -1.4808 H       1  UNL1        0.0621
     24 H           0.7073    2.0385    0.9587 H       1  UNL1        0.0840
     25 H          -2.6538    2.0688    1.1678 H       1  UNL1        0.0646
     26 H          -0.3471    1.2794   -1.8181 H       1  UNL1        0.0335
     27 H           0.5419    2.7464   -1.3488 H       1  UNL1        0.0335
     28 H          -2.4377    0.0172   -1.1036 H       1  UNL1        0.0592
     29 H          -3.8471    1.0761   -0.8327 H       1  UNL1        0.0592
     30 H          -0.8336    3.6485    0.9013 H       1  UNL1        0.2099
     31 H          -0.2715   -1.4020   -0.2389 H       1  UNL1        0.1030
     32 H           5.2924    1.7412    0.4883 H       1  UNL1        0.1048
     33 H           4.1209   -3.3808   -0.4807 H       1  UNL1        0.1438
     34 H           5.7562   -2.7638   -0.3239 H       1  UNL1        0.1438
     35 H          -4.0088   -3.0527   -1.4721 H       1  UNL1        0.2220
     36 H          -6.4235   -1.2488   -0.9493 H       1  UNL1        0.2220
@<TRIPOS>BOND
     1     1     4    1
     2     1     5    1
     3     1     6    1
     4     1     7    2
     5     2    14    1
     6     2    15    1
     7     3    13    1
     8     3    30    1
     9     4    17    1
    10     5    35    1
    11     6    36    1
    12     8    14    1
    13     8    18   ar
    14     8    19   ar
    15     9    19   ar
    16     9    20   ar
    17    10    18   ar
    18    10    22   ar
    19    11    21   ar
    20    11    22   ar
    21    12    21    1
    22    12    33    1
    23    12    34    1
    24    13    15    1
    25    13    16    1
    26    13    23    1
    27    14    16    1
    28    14    24    1
    29    15    17    1
    30    15    25    1
    31    16    26    1
    32    16    27    1
    33    17    28    1
    34    17    29    1
    35    18    20   ar
    36    19    31    1
    37    20    21   ar
    38    22    32    1
