@<TRIPOS>MOLECULE
datp
 46 48 0 0 0
SMALL
GASTEIGER

@<TRIPOS>ATOM
      1 P           2.5904   -1.3427   -1.5908 P.3     1  UNL1        0.4835
      2 P           3.7649    0.8157    0.0299 P.3     1  UNL1        0.4918
      3 P           1.8963    1.6222    2.1658 P.3     1  UNL1        0.4808
      4 O          -0.8531   -1.6210    0.9950 O.3     1  UNL1       -0.3484
      5 O          -1.9167   -4.4888    1.4135 O.3     1  UNL1       -0.3890
      6 O           1.5492   -1.7943   -0.4374 O.3     1  UNL1       -0.2837
      7 O           3.7666   -0.5713   -0.7964 O.3     1  UNL1       -0.1858
      8 O           3.2993   -2.7212   -2.0542 O.3     1  UNL1       -0.3022
      9 O           1.9838   -0.5506   -2.7125 O.2     1  UNL1       -0.2269
     10 O           2.5689    0.6135    1.0971 O.3     1  UNL1       -0.1859
     11 O           3.1586    1.8887   -1.0162 O.3     1  UNL1       -0.3019
     12 O           5.0828    1.2012    0.6345 O.2     1  UNL1       -0.2265
     13 O           1.1885    2.7311    1.2269 O.3     1  UNL1       -0.3023
     14 O           0.6512    0.7767    2.7543 O.3     1  UNL1       -0.3023
     15 O           2.8440    2.1676    3.1932 O.2     1  UNL1       -0.2271
     16 N          -2.7714   -0.3032    0.5358 N.ar    1  UNL1       -0.2879
     17 N          -4.1018    1.4866    0.4225 N.ar    1  UNL1       -0.2306
     18 N          -0.9930    0.4103   -0.9582 N.ar    1  UNL1       -0.2159
     19 N          -1.4292    2.6350   -1.8620 N.ar    1  UNL1       -0.2188
     20 N          -3.3861    3.8907   -1.2959 N.pl3   1  UNL1       -0.3413
     21 C          -1.5916   -3.7555    0.2346 C.3     1  UNL1        0.0877
     22 C          -0.3670   -2.8851    0.4960 C.3     1  UNL1        0.1108
     23 C          -2.2899   -1.6214    0.9320 C.3     1  UNL1        0.1408
     24 C          -2.6866   -2.7440   -0.0160 C.3     1  UNL1        0.0213
     25 C           0.4411   -2.6148   -0.7657 C.3     1  UNL1        0.0878
     26 C          -2.1583    0.5759   -0.3144 C.ar    1  UNL1        0.1673
     27 C          -3.9360    0.2918    0.9506 C.ar    1  UNL1        0.1003
     28 C          -2.9978    1.6769   -0.3702 C.ar    1  UNL1        0.1473
     29 C          -2.5964    2.7337   -1.1812 C.ar    1  UNL1        0.1472
     30 C          -0.7106    1.4962   -1.7104 C.ar    1  UNL1        0.1205
     31 H          -1.4646   -4.4738   -0.5794 H       1  UNL1        0.0621
     32 H           0.2828   -3.3045    1.2726 H       1  UNL1        0.0646
     33 H          -2.6611   -1.8042    1.9477 H       1  UNL1        0.0840
     34 H          -3.6939   -3.1147    0.1968 H       1  UNL1        0.0335
     35 H          -2.6529   -2.4056   -1.0584 H       1  UNL1        0.0335
     36 H          -0.1573   -2.1000   -1.5232 H       1  UNL1        0.0592
     37 H           0.8086   -3.5545   -1.1899 H       1  UNL1        0.0592
     38 H          -1.8920   -3.8876    2.1765 H       1  UNL1        0.2099
     39 H          -4.6196   -0.1934    1.6338 H       1  UNL1        0.1030
     40 H           0.2182    1.4574   -2.2675 H       1  UNL1        0.1048
     41 H          -3.0724    4.6455   -1.8908 H       1  UNL1        0.1438
     42 H          -4.2569    3.9672   -0.7881 H       1  UNL1        0.1438
     43 H           2.8325   -3.3053   -2.6891 H       1  UNL1        0.2220
     44 H           3.7399    2.2457   -1.7209 H       1  UNL1        0.2220
     45 H           0.7780    3.5170    1.6464 H       1  UNL1        0.2220
     46 H           0.1225    1.1569    3.4877 H       1  UNL1        0.2220
@<TRIPOS>BOND
     1     1     6    1
     2     1     7    1
     3     1     8    1
     4     1     9    2
     5     2     7    1
     6     2    10    1
     7     2    11    1
     8     2    12    2
     9     3    10    1
    10     3    13    1
    11     3    14    1
    12     3    15    2
    13     4    22    1
    14     4    23    1
    15     5    21    1
    16     5    38    1
    17     6    25    1
    18     8    43    1
    19    11    44    1
    20    13    45    1
    21    14    46    1
    22    16    23    1
    23    16    26   ar
    24    16    27   ar
    25    17    27   ar
    26    17    28   ar
    27    18    26   ar
    28    18    30   ar
    29    19    29   ar
    30    19    30   ar
    31    20    29    1
    32    20    41    1
    33    20    42    1
    34    21    22    1
    35    21    24    1
    36    21    31    1
    37    22    25    1
    38    22    32    1
    39    23    24    1
    40    23    33    1
    41    24    34    1
    42    24    35    1
    43    25    36    1
    44    25    37    1
    45    26    28   ar
    46    27    39    1
    47    28    29   ar
    48    30    40    1
