@<TRIPOS>MOLECULE
dcmp
 34 35 0 0 0
SMALL
GASTEIGER

@<TRIPOS>ATOM
      1 P          -3.5858   -1.5242    0.1221 P.3     1  UNL1        0.4724
      2 O          -0.3433    1.1707    1.0252 O.3     1  UNL1       -0.3483
      3 O          -0.6873    4.0267   -0.0224 O.3     1  UNL1       -0.3890
      4 O          -2.7283   -0.2409    0.6089 O.3     1  UNL1       -0.2841
      5 O           3.6928    1.4079    0.3876 O.2     1  UNL1       -0.2444
      6 O          -2.6174   -2.2484   -0.9515 O.3     1  UNL1       -0.3026
      7 O          -4.7348   -0.8601   -0.8019 O.3     1  UNL1       -0.3026
      8 O          -4.0914   -2.4052    1.2269 O.2     1  UNL1       -0.2275
      9 N           1.6673    0.3218    0.1816 N.ar    1  UNL1       -0.2725
     10 N           3.7787   -0.8327    0.0350 N.ar    1  UNL1       -0.1783
     11 N           3.8596   -3.1283   -0.3281 N.pl3   1  UNL1       -0.3430
     12 C          -0.8475    2.7610   -0.6594 C.3     1  UNL1        0.0877
     13 C          -1.4507    1.7618    0.3180 C.3     1  UNL1        0.1108
     14 C           0.5091    2.1678   -0.9617 C.3     1  UNL1        0.0214
     15 C           0.8803    1.5074    0.3561 C.3     1  UNL1        0.1423
     16 C          -2.2148    0.6416   -0.3757 C.3     1  UNL1        0.0878
     17 C           1.0152   -0.8832   -0.0217 C.ar    1  UNL1        0.0151
     18 C           3.0832    0.3515    0.2105 C.ar    1  UNL1        0.3521
     19 C           1.6656   -2.0324   -0.1937 C.ar    1  UNL1       -0.0056
     20 C           3.1496   -1.9627   -0.1557 C.ar    1  UNL1        0.1230
     21 H          -1.4615    2.9164   -1.5514 H       1  UNL1        0.0621
     22 H          -2.0872    2.2449    1.0676 H       1  UNL1        0.0646
     23 H           0.4169    1.4252   -1.7634 H       1  UNL1        0.0335
     24 H           1.2609    2.9019   -1.2684 H       1  UNL1        0.0335
     25 H           1.4155    2.2182    0.9967 H       1  UNL1        0.0840
     26 H          -1.5906    0.0896   -1.0820 H       1  UNL1        0.0592
     27 H          -3.0529    1.0712   -0.9347 H       1  UNL1        0.0592
     28 H          -0.2473    4.6179   -0.6569 H       1  UNL1        0.2099
     29 H          -0.0619   -0.9000   -0.0322 H       1  UNL1        0.0812
     30 H           1.1643   -2.9784   -0.3488 H       1  UNL1        0.0666
     31 H           3.4005   -4.0205   -0.4788 H       1  UNL1        0.1437
     32 H           4.8738   -3.1275   -0.3102 H       1  UNL1        0.1437
     33 H          -2.8974   -3.1035   -1.3422 H       1  UNL1        0.2220
     34 H          -5.4518   -1.4311   -1.1512 H       1  UNL1        0.2220
@<TRIPOS>BOND
     1     1     4    1
     2     1     6    1
     3     1     7    1
     4     1     8    2
     5     2    13    1
     6     2    15    1
     7     3    12    1
     8     3    28    1
     9     4    16    1
    10     5    18    2
    11     6    33    1
    12     7    34    1
    13     9    15    1
    14     9    17   ar
    15     9    18   ar
    16    10    18   ar
    17    10    20   ar
    18    11    20    1
    19    11    31    1
    20    11    32    1
    21    12    13    1
    22    12    14    1
    23    12    21    1
    24    13    16    1
    25    13    22    1
    26    14    15    1
    27    14    23    1
    28    14    24    1
    29    15    25    1
    30    16    26    1
    31    16    27    1
    32    17    19   ar
    33    17    29    1
    34    19    20   ar
    35    19    30    1
