@<TRIPOS>MOLECULE
dctp
 44 45 0 0 0
SMALL
GASTEIGER

@<TRIPOS>ATOM
      1 P           1.4263    2.2970    0.1566 P.3     1  UNL1        0.4835
      2 P           4.0770    1.2813   -0.6232 P.3     1  UNL1        0.4918
      3 P           4.5507   -1.3693    0.5823 P.3     1  UNL1        0.4808
      4 O          -1.2089   -1.0469    0.8683 O.3     1  UNL1       -0.3483
      5 O          -0.3713   -3.6888   -0.4321 O.3     1  UNL1       -0.3890
      6 O           0.8455    0.8296    0.5137 O.3     1  UNL1       -0.2837
      7 O           2.6557    2.0122   -0.8522 O.3     1  UNL1       -0.1858
      8 O          -5.1490   -2.0066    0.3133 O.2     1  UNL1       -0.2444
      9 O           0.3022    2.9509   -0.8056 O.3     1  UNL1       -0.3022
     10 O           1.7891    3.1379    1.3459 O.2     1  UNL1       -0.2269
     11 O           3.6639   -0.1560   -0.0122 O.3     1  UNL1       -0.1859
     12 O           4.7132    2.0599    0.6425 O.3     1  UNL1       -0.3019
     13 O           4.9634    1.2146   -1.8319 O.2     1  UNL1       -0.2265
     14 O           3.4549   -2.5273    0.8484 O.3     1  UNL1       -0.3023
     15 O           5.3652   -1.9101   -0.7046 O.3     1  UNL1       -0.3023
     16 O           5.3941   -1.0050    1.7684 O.2     1  UNL1       -0.2271
     17 N          -3.3773   -0.5370    0.1522 N.ar    1  UNL1       -0.2725
     18 N          -5.6740    0.1962    0.1593 N.ar    1  UNL1       -0.1783
     19 N          -6.2051    2.4546   -0.0006 N.pl3   1  UNL1       -0.3430
     20 C          -0.4812   -2.3689   -0.9603 C.3     1  UNL1        0.0877
     21 C          -0.0395   -1.3541    0.0850 C.3     1  UNL1        0.1108
     22 C          -1.9372   -2.0264   -1.1759 C.3     1  UNL1        0.0214
     23 C          -2.3726   -1.5584    0.2031 C.3     1  UNL1        0.1423
     24 C           0.4684   -0.0553   -0.5275 C.3     1  UNL1        0.0878
     25 C          -2.9753    0.7837    0.0383 C.ar    1  UNL1        0.0151
     26 C          -4.7594   -0.8417    0.2137 C.ar    1  UNL1        0.3521
     27 C          -3.8390    1.7957   -0.0168 C.ar    1  UNL1       -0.0056
     28 C          -5.2798    1.4380    0.0520 C.ar    1  UNL1        0.1230
     29 H           0.1143   -2.3304   -1.8772 H       1  UNL1        0.0621
     30 H           0.7065   -1.7635    0.7744 H       1  UNL1        0.0646
     31 H          -2.5475   -2.8646   -1.5265 H       1  UNL1        0.0335
     32 H          -2.0209   -1.2177   -1.9121 H       1  UNL1        0.0335
     33 H          -2.7360   -2.4084    0.7927 H       1  UNL1        0.0840
     34 H          -0.2816    0.4248   -1.1602 H       1  UNL1        0.0592
     35 H           1.3395   -0.2630   -1.1560 H       1  UNL1        0.0592
     36 H          -0.7162   -4.3007   -1.1045 H       1  UNL1        0.2099
     37 H          -1.9225    1.0092    0.0033 H       1  UNL1        0.0812
     38 H          -3.5335    2.8301   -0.1010 H       1  UNL1        0.0666
     39 H          -0.5044    3.3346   -0.4000 H       1  UNL1        0.2220
     40 H          -7.1990    2.2567    0.0427 H       1  UNL1        0.1437
     41 H          -5.9307    3.4279   -0.0840 H       1  UNL1        0.1437
     42 H           5.1265    2.9381    0.5009 H       1  UNL1        0.2220
     43 H           3.7343   -3.3506    1.3027 H       1  UNL1        0.2220
     44 H           6.0420   -2.6089   -0.5791 H       1  UNL1        0.2220
@<TRIPOS>BOND
     1     1     6    1
     2     1     7    1
     3     1     9    1
     4     1    10    2
     5     2     7    1
     6     2    11    1
     7     2    12    1
     8     2    13    2
     9     3    11    1
    10     3    14    1
    11     3    15    1
    12     3    16    2
    13     4    21    1
    14     4    23    1
    15     5    20    1
    16     5    36    1
    17     6    24    1
    18     8    26    2
    19     9    39    1
    20    12    42    1
    21    14    43    1
    22    15    44    1
    23    17    23    1
    24    17    25   ar
    25    17    26   ar
    26    18    26   ar
    27    18    28   ar
    28    19    28    1
    29    19    40    1
    30    19    41    1
    31    20    21    1
    32    20    22    1
    33    20    29    1
    34    21    24    1
    35    21    30    1
    36    22    23    1
    37    22    31    1
    38    22    32    1
    39    23    33    1
    40    24    34    1
    41    24    35    1
    42    25    27   ar
    43    25    37    1
    44    27    28   ar
    45    27    38    1
