@<TRIPOS>MOLECULE
dgmp
 37 39 0 0 0
SMALL
GASTEIGER

@<TRIPOS>ATOM
      1 P          -4.7629   -1.3722    0.1680 P.3     1  UNL1        0.4724
      2 O          -1.2094    0.9356    0.9419 O.3     1  UNL1       -0.3484
      3 O          -1.3215    3.8484   -0.0155 O.3     1  UNL1       -0.3890
      4 O          -3.7452   -0.2006    0.6298 O.3     1  UNL1       -0.2841
      5 O          -3.9442   -2.1599   -0.9829 O.3     1  UNL1       -0.3026
      6 O          -5.8901   -0.5647   -0.6640 O.3     1  UNL1       -0.3026
      7 O           4.3315   -2.8691   -0.3372 O.2     1  UNL1       -0.2654
      8 O          -5.2896   -2.2293    1.2816 O.2     1  UNL1       -0.2275
      9 N           0.9043    0.0430    0.0980 N.ar    1  UNL1       -0.2878
     10 N           1.4651   -2.0971   -0.2299 N.ar    1  UNL1       -0.2286
     11 N           3.0964    1.0560    0.2637 N.ar    1  UNL1       -0.1963
     12 N           4.8014   -0.6087    0.0140 N.ar    1  UNL1       -0.2934
     13 N           5.3675    1.6496    0.3647 N.pl3   1  UNL1       -0.3289
     14 C          -1.6387    2.6252   -0.6755 C.3     1  UNL1        0.0877
     15 C           0.0290    1.2571    0.2812 C.3     1  UNL1        0.1408
     16 C          -2.2843    1.6629    0.3132 C.3     1  UNL1        0.1108
     17 C          -0.3484    1.9266   -1.0357 C.3     1  UNL1        0.0213
     18 C          -3.2028    0.6533   -0.3620 C.3     1  UNL1        0.0878
     19 C           2.2675    0.0018    0.0974 C.ar    1  UNL1        0.1711
     20 C           0.4677   -1.2438   -0.1026 C.ar    1  UNL1        0.1004
     21 C           2.5792   -1.3209   -0.1054 C.ar    1  UNL1        0.1721
     22 C           3.9594   -1.7159   -0.1605 C.ar    1  UNL1        0.2803
     23 C           4.3682    0.7229    0.2177 C.ar    1  UNL1        0.1950
     24 H           0.5871    1.9338    0.9390 H       1  UNL1        0.0840
     25 H          -2.2597    2.8612   -1.5443 H       1  UNL1        0.0621
     26 H          -2.8241    2.1842    1.1116 H       1  UNL1        0.0646
     27 H          -0.5309    1.1765   -1.8143 H       1  UNL1        0.0335
     28 H           0.4407    2.6006   -1.3831 H       1  UNL1        0.0335
     29 H          -2.6461    0.0437   -1.0807 H       1  UNL1        0.0592
     30 H          -4.0137    1.1711   -0.8835 H       1  UNL1        0.0592
     31 H          -2.1610    4.2593    0.2528 H       1  UNL1        0.2099
     32 H          -0.5825   -1.4980   -0.1496 H       1  UNL1        0.1030
     33 H           5.8032   -0.7765   -0.0078 H       1  UNL1        0.1716
     34 H           5.1562    2.6301    0.5150 H       1  UNL1        0.1451
     35 H           6.3453    1.3834    0.3275 H       1  UNL1        0.1451
     36 H          -4.3363   -2.9691   -1.3748 H       1  UNL1        0.2220
     37 H          -6.6834   -1.0473   -0.9801 H       1  UNL1        0.2220
@<TRIPOS>BOND
     1     1     4    1
     2     1     5    1
     3     1     6    1
     4     1     8    2
     5     2    15    1
     6     2    16    1
     7     3    14    1
     8     3    31    1
     9     4    18    1
    10     5    36    1
    11     6    37    1
    12     7    22    2
    13     9    15    1
    14     9    19   ar
    15     9    20   ar
    16    10    20   ar
    17    10    21   ar
    18    11    19   ar
    19    11    23   ar
    20    12    22   ar
    21    12    23   ar
    22    12    33    1
    23    13    23    1
    24    13    34    1
    25    13    35    1
    26    14    16    1
    27    14    17    1
    28    14    25    1
    29    15    17    1
    30    15    24    1
    31    16    18    1
    32    16    26    1
    33    17    27    1
    34    17    28    1
    35    18    29    1
    36    18    30    1
    37    19    21   ar
    38    20    32    1
    39    21    22   ar
