@<TRIPOS>MOLECULE
dgtp
 47 49 0 0 0
SMALL
GASTEIGER

@<TRIPOS>ATOM
      1 P           3.1710   -2.6200   -1.8152 P.3     1  UNL1        0.4835
      2 P           5.5782   -3.9310   -1.1316 P.3     1  UNL1        0.4918
      3 P           6.0959   -6.3408   -2.4425 P.3     1  UNL1        0.4808
      4 O          -0.8953   -2.0760   -3.7073 O.3     1  UNL1       -0.3484
      5 O          -2.0245    0.6295   -3.2213 O.3     1  UNL1       -0.3890
      6 O           2.0656   -2.2189   -2.9856 O.3     1  UNL1       -0.2837
      7 O           4.4760   -3.5822   -2.4185 O.3     1  UNL1       -0.1858
      8 O           2.2096   -4.0451   -1.6218 O.3     1  UNL1       -0.3022
      9 O           4.0315   -1.3444   -1.9883 O.2     1  UNL1       -0.2269
     10 O          -2.5891   -7.7363   -0.5713 O.2     1  UNL1       -0.2654
     11 O           6.3959   -4.8027   -2.2456 O.3     1  UNL1       -0.1859
     12 O           6.3053   -2.4971   -1.4992 O.3     1  UNL1       -0.3019
     13 O           6.5648   -4.2432    0.0203 O.2     1  UNL1       -0.2265
     14 O           7.1303   -6.8041   -3.5683 O.3     1  UNL1       -0.3023
     15 O           6.6914   -7.0453   -1.1439 O.3     1  UNL1       -0.3023
     16 O           4.6803   -6.6771   -2.7605 O.2     1  UNL1       -0.2271
     17 N          -2.1625   -3.6631   -2.5583 N.ar    1  UNL1       -0.2878
     18 N          -1.7455   -5.8502   -2.7956 N.ar    1  UNL1       -0.2286
     19 N          -3.4305   -3.7012   -0.4567 N.ar    1  UNL1       -0.1963
     20 N          -3.5315   -5.9048    0.4151 N.ar    1  UNL1       -0.2934
     21 N          -4.5779   -4.1565    1.5038 N.pl3   1  UNL1       -0.3289
     22 C          -1.1829   -0.1573   -2.3758 C.3     1  UNL1        0.0877
     23 C          -0.1573   -0.9435   -3.2166 C.3     1  UNL1        0.1108
     24 C          -2.0958   -2.2605   -2.9085 C.3     1  UNL1        0.1408
     25 C          -2.0156   -1.2599   -1.7591 C.3     1  UNL1        0.0213
     26 C           1.0241   -1.4220   -2.3496 C.3     1  UNL1        0.0878
     27 C          -2.7235   -4.2732   -1.4684 C.ar    1  UNL1        0.1711
     28 C          -1.6473   -4.6643   -3.3527 C.ar    1  UNL1        0.1004
     29 C          -2.4071   -5.6083   -1.6222 C.ar    1  UNL1        0.1721
     30 C          -2.8249   -6.5325   -0.5957 C.ar    1  UNL1        0.2803
     31 C          -3.8288   -4.5599    0.4457 C.ar    1  UNL1        0.1950
     32 H          -0.7277    0.5125   -1.6403 H       1  UNL1        0.0621
     33 H           0.2002   -0.3768   -4.0815 H       1  UNL1        0.0646
     34 H          -2.9590   -2.0487   -3.5519 H       1  UNL1        0.0840
     35 H          -1.4978   -1.6813   -0.8899 H       1  UNL1        0.0335
     36 H          -3.0103   -0.9358   -1.4354 H       1  UNL1        0.0335
     37 H           0.6356   -2.0266   -1.5224 H       1  UNL1        0.0592
     38 H           1.5054   -0.5375   -1.9151 H       1  UNL1        0.0592
     39 H          -2.7189    1.0384   -2.6727 H       1  UNL1        0.2099
     40 H          -1.1988   -4.4578   -4.3191 H       1  UNL1        0.1030
     41 H          -3.8765   -6.5237    1.1283 H       1  UNL1        0.1716
     42 H           2.1357   -4.4908   -2.4949 H       1  UNL1        0.2220
     43 H          -4.6253   -3.1521    1.6220 H       1  UNL1        0.1451
     44 H          -4.5011   -4.6727    2.3709 H       1  UNL1        0.1451
     45 H           5.7029   -1.7200   -1.4934 H       1  UNL1        0.2220
     46 H           6.7656   -6.6651   -4.4617 H       1  UNL1        0.2220
     47 H           7.6058   -6.7559   -0.9661 H       1  UNL1        0.2220
@<TRIPOS>BOND
     1     1     6    1
     2     1     7    1
     3     1     8    1
     4     1     9    2
     5     2     7    1
     6     2    11    1
     7     2    12    1
     8     2    13    2
     9     3    11    1
    10     3    14    1
    11     3    15    1
    12     3    16    2
    13     4    23    1
    14     4    24    1
    15    22     5    1
    16     5    39    1
    17     6    26    1
    18     8    42    1
    19    10    30    2
    20    12    45    1
    21    14    46    1
    22    15    47    1
    23    17    27   ar
    24    17    28   ar
    25    18    28   ar
    26    18    29   ar
    27    19    27   ar
    28    19    31   ar
    29    20    30   ar
    30    20    31   ar
    31    20    41    1
    32    21    31    1
    33    21    43    1
    34    21    44    1
    35    22    23    1
    36    22    25    1
    37    22    32    1
    38    23    26    1
    39    23    33    1
    40    24    25    1
    41    25    35    1
    42    25    36    1
    43    26    37    1
    44    26    38    1
    45    27    29   ar
    46    28    40    1
    47    29    30   ar
    48    24    34    1
    49    24    17    1
