@<TRIPOS>MOLECULE
dtmp
 36 37 0 0 0
SMALL
GASTEIGER

@<TRIPOS>ATOM
      1 P          -3.5515   -1.5175    0.1599 P.3     1  UNL1        0.4724
      2 O          -0.4389    1.3396    1.0202 O.3     1  UNL1       -0.3483
      3 O          -0.9101    4.1569   -0.0812 O.3     1  UNL1       -0.3890
      4 O          -2.7552   -0.1874    0.6247 O.3     1  UNL1       -0.2841
      5 O           3.6173    1.7470    0.3907 O.2     1  UNL1       -0.2464
      6 O           3.8378   -2.8022   -0.2452 O.2     1  UNL1       -0.2674
      7 O          -2.5475   -2.2163   -0.8977 O.3     1  UNL1       -0.3026
      8 O          -4.7267   -0.9241   -0.7790 O.3     1  UNL1       -0.3026
      9 O          -4.0197   -2.4002    1.2798 O.2     1  UNL1       -0.2275
     10 N           1.6113    0.5684    0.1973 N.ar    1  UNL1       -0.2737
     11 N           3.7127   -0.5224    0.0726 N.ar    1  UNL1       -0.2747
     12 C          -1.0101    2.8736   -0.6948 C.3     1  UNL1        0.0877
     13 C          -1.5699    1.8660    0.2995 C.3     1  UNL1        0.1108
     14 C           0.3733    2.3378   -0.9829 C.3     1  UNL1        0.0214
     15 C           0.7701    1.7196    0.3478 C.3     1  UNL1        0.1422
     16 C          -2.2796    0.6993   -0.3750 C.3     1  UNL1        0.0878
     17 C           1.0112   -0.6708    0.0146 C.ar    1  UNL1        0.0199
     18 C           3.0176    0.6816    0.2323 C.ar    1  UNL1        0.3313
     19 C           1.6792   -1.8209   -0.1381 C.ar    1  UNL1        0.0302
     20 C           3.1656   -1.7831   -0.1119 C.ar    1  UNL1        0.2568
     21 C           1.0130   -3.1449   -0.3336 C.3     1  UNL1       -0.0332
     22 H          -1.6278    2.9841   -1.5911 H       1  UNL1        0.0621
     23 H          -2.2303    2.3332    1.0386 H       1  UNL1        0.0646
     24 H           1.2710    2.4660    0.9759 H       1  UNL1        0.0840
     25 H           0.3178    1.5771   -1.7708 H       1  UNL1        0.0335
     26 H           1.0916    3.0998   -1.3015 H       1  UNL1        0.0335
     27 H          -1.6305    0.1640   -1.0714 H       1  UNL1        0.0592
     28 H          -3.1354    1.0802   -0.9425 H       1  UNL1        0.0592
     29 H          -0.4957    4.7558   -0.7256 H       1  UNL1        0.2099
     30 H          -0.0658   -0.7086    0.0034 H       1  UNL1        0.0816
     31 H           4.7271   -0.4654    0.0946 H       1  UNL1        0.1734
     32 H           1.2746   -3.5632   -1.3108 H       1  UNL1        0.0280
     33 H          -0.0768   -3.0684   -0.2826 H       1  UNL1        0.0280
     34 H           1.3288   -3.8501    0.4423 H       1  UNL1        0.0280
     35 H          -2.7853   -3.0915   -1.2714 H       1  UNL1        0.2220
     36 H          -5.4156   -1.5338   -1.1192 H       1  UNL1        0.2220
@<TRIPOS>BOND
     1     1     4    1
     2     1     7    1
     3     1     8    1
     4     1     9    2
     5     2    13    1
     6     2    15    1
     7     3    12    1
     8     3    29    1
     9     4    16    1
    10     5    18    2
    11     6    20    2
    12     7    35    1
    13     8    36    1
    14    10    15    1
    15    10    17   ar
    16    10    18   ar
    17    11    18   ar
    18    11    20   ar
    19    11    31    1
    20    12    13    1
    21    12    14    1
    22    12    22    1
    23    13    16    1
    24    13    23    1
    25    14    15    1
    26    14    25    1
    27    14    26    1
    28    15    24    1
    29    16    27    1
    30    16    28    1
    31    17    19   ar
    32    17    30    1
    33    19    20   ar
    34    19    21    1
    35    21    32    1
    36    21    33    1
    37    21    34    1
