@<TRIPOS>MOLECULE
dttp
 46 47 0 0 0
SMALL
GASTEIGER

@<TRIPOS>ATOM
      1 P           2.4841   -1.4785   -1.5787 P.3     1  UNL1        0.4835
      2 P           3.8686    0.6031   -0.0247 P.3     1  UNL1        0.4918
      3 P           2.1047    1.6316    2.1048 P.3     1  UNL1        0.4808
      4 O          -0.9528   -1.3752    1.0309 O.3     1  UNL1       -0.3483
      5 O          -2.2888   -4.0778    1.5632 O.3     1  UNL1       -0.3890
      6 O           1.4182   -1.8031   -0.4053 O.3     1  UNL1       -0.2837
      7 O          -4.6213    0.5014    1.2197 O.2     1  UNL1       -0.2464
      8 O           3.7344   -0.7986   -0.8145 O.3     1  UNL1       -0.1858
      9 O           3.0586   -2.9275   -2.0117 O.3     1  UNL1       -0.3022
     10 O           1.9408   -0.6625   -2.7156 O.2     1  UNL1       -0.2269
     11 O          -3.0110    3.6475   -1.7227 O.2     1  UNL1       -0.2674
     12 O           2.6705    0.5387    1.0573 O.3     1  UNL1       -0.1859
     13 O           3.3522    1.7006   -1.0933 O.3     1  UNL1       -0.3019
     14 O           5.2227    0.8810    0.5588 O.2     1  UNL1       -0.2265
     15 O           1.4916    2.7770    1.1431 O.3     1  UNL1       -0.3023
     16 O           0.7936    0.9193    2.7254 O.3     1  UNL1       -0.3023
     17 O           3.1092    2.1135    3.1098 O.2     1  UNL1       -0.2271
     18 N          -2.5724    0.0841    0.1811 N.ar    1  UNL1       -0.2737
     19 N          -3.8068    2.0619   -0.2506 N.ar    1  UNL1       -0.2747
     20 C          -1.8813   -3.4479    0.3506 C.3     1  UNL1        0.0877
     21 C          -0.5802   -2.6892    0.5727 C.3     1  UNL1        0.1108
     22 C          -2.8590   -2.3528   -0.0079 C.3     1  UNL1        0.0214
     23 C          -2.3587   -1.1810    0.8209 C.3     1  UNL1        0.1422
     24 C           0.2360   -2.5264   -0.7029 C.3     1  UNL1        0.0878
     25 C          -1.6119    0.5467   -0.7091 C.ar    1  UNL1        0.0199
     26 C          -3.7292    0.8490    0.4431 C.ar    1  UNL1        0.3313
     27 C          -1.6891    1.7076   -1.3713 C.ar    1  UNL1        0.0302
     28 C          -2.8794    2.5705   -1.1473 C.ar    1  UNL1        0.2568
     29 C          -0.6431    2.1869   -2.3258 C.3     1  UNL1       -0.0332
     30 H          -1.8016   -4.2260   -0.4144 H       1  UNL1        0.0621
     31 H           0.0354   -3.1391    1.3595 H       1  UNL1        0.0646
     32 H          -3.9023   -2.5906    0.2221 H       1  UNL1        0.0335
     33 H          -2.7918   -2.1348   -1.0806 H       1  UNL1        0.0335
     34 H          -2.8383   -1.1842    1.8069 H       1  UNL1        0.0840
     35 H          -0.3125   -2.0133   -1.4964 H       1  UNL1        0.0592
     36 H           0.5223   -3.5131   -1.0827 H       1  UNL1        0.0592
     37 H          -3.1488   -4.5003    1.3966 H       1  UNL1        0.2099
     38 H          -0.7407   -0.0674   -0.8698 H       1  UNL1        0.0816
     39 H          -4.6313    2.6301   -0.0775 H       1  UNL1        0.1734
     40 H          -1.0660    2.3066   -3.3284 H       1  UNL1        0.0280
     41 H           0.1961    1.4886   -2.3987 H       1  UNL1        0.0280
     42 H          -0.2414    3.1518   -1.9993 H       1  UNL1        0.0280
     43 H           2.5334   -3.4822   -2.6270 H       1  UNL1        0.2220
     44 H           3.9563    1.9850   -1.8118 H       1  UNL1        0.2220
     45 H           1.1604    3.6080    1.5453 H       1  UNL1        0.2220
     46 H           0.3107    1.3644    3.4540 H       1  UNL1        0.2220
@<TRIPOS>BOND
     1     1     6    1
     2     1     8    1
     3     1     9    1
     4     1    10    2
     5     2     8    1
     6     2    12    1
     7     2    13    1
     8     2    14    2
     9     3    12    1
    10     3    15    1
    11     3    16    1
    12     3    17    2
    13     4    21    1
    14     4    23    1
    15     5    20    1
    16     5    37    1
    17     6    24    1
    18     7    26    2
    19     9    43    1
    20    11    28    2
    21    13    44    1
    22    15    45    1
    23    16    46    1
    24    18    23    1
    25    18    25   ar
    26    18    26   ar
    27    19    26   ar
    28    19    28   ar
    29    19    39    1
    30    20    21    1
    31    20    22    1
    32    20    30    1
    33    21    24    1
    34    21    31    1
    35    22    23    1
    36    22    32    1
    37    22    33    1
    38    23    34    1
    39    24    35    1
    40    24    36    1
    41    25    27   ar
    42    25    38    1
    43    27    28   ar
    44    27    29    1
    45    29    40    1
    46    29    41    1
    47    29    42    1
