@<TRIPOS>MOLECULE
dump
 33 34 0 0 0
SMALL
GASTEIGER

@<TRIPOS>ATOM
      1 P          -3.5899   -1.5118    0.1252 P.3     1  UNL1        0.4724
      2 O          -0.3378    1.1731    1.0234 O.3     1  UNL1       -0.3483
      3 O          -0.6722    4.0287   -0.0282 O.3     1  UNL1       -0.3890
      4 O          -2.7278   -0.2308    0.6099 O.3     1  UNL1       -0.2841
      5 O           3.7074    1.4377    0.3962 O.2     1  UNL1       -0.2464
      6 O          -2.6244   -2.2410   -0.9476 O.3     1  UNL1       -0.3026
      7 O          -4.7368   -0.8450   -0.7995 O.3     1  UNL1       -0.3026
      8 O          -4.0983   -2.3894    1.2314 O.2     1  UNL1       -0.2275
      9 O           3.7870   -3.1142   -0.3238 O.2     1  UNL1       -0.2677
     10 N           1.6696    0.3159    0.1806 N.ar    1  UNL1       -0.2740
     11 N           3.7450   -0.8290    0.0369 N.ar    1  UNL1       -0.2749
     12 C          -0.8370    2.7627   -0.6633 C.3     1  UNL1        0.0877
     13 C          -1.4433    1.7670    0.3157 C.3     1  UNL1        0.1108
     14 C           0.5175    2.1643   -0.9651 C.3     1  UNL1        0.0214
     15 C           0.8867    1.5045    0.3535 C.3     1  UNL1        0.1422
     16 C          -2.2115    0.6484   -0.3762 C.3     1  UNL1        0.0878
     17 C           3.0805    0.3913    0.2180 C.ar    1  UNL1        0.3313
     18 C           1.0382   -0.9041   -0.0231 C.ar    1  UNL1        0.0170
     19 C           1.6853   -2.0589   -0.1942 C.ar    1  UNL1        0.0192
     20 C           3.1618   -2.0694   -0.1695 C.ar    1  UNL1        0.2539
     21 H          -1.4507    2.9189   -1.5554 H       1  UNL1        0.0621
     22 H          -2.0780    2.2534    1.0647 H       1  UNL1        0.0646
     23 H           0.4224    1.4203   -1.7652 H       1  UNL1        0.0335
     24 H           1.2717    2.8951   -1.2735 H       1  UNL1        0.0335
     25 H           1.4215    2.2161    0.9937 H       1  UNL1        0.0840
     26 H          -1.5860    0.0918   -1.0777 H       1  UNL1        0.0592
     27 H          -3.0472    1.0787   -0.9381 H       1  UNL1        0.0592
     28 H          -0.2303    4.6174   -0.6637 H       1  UNL1        0.2099
     29 H          -0.0400   -0.9216   -0.0354 H       1  UNL1        0.0813
     30 H           4.7605   -0.8001    0.0598 H       1  UNL1        0.1734
     31 H           1.1601   -2.9936   -0.3476 H       1  UNL1        0.0686
     32 H          -2.9074   -3.0956   -1.3371 H       1  UNL1        0.2220
     33 H          -5.4560   -1.4140   -1.1476 H       1  UNL1        0.2220
@<TRIPOS>BOND
     1     1     4    1
     2     1     6    1
     3     1     7    1
     4     1     8    2
     5     2    13    1
     6     2    15    1
     7     3    12    1
     8     3    28    1
     9     4    16    1
    10     5    17    2
    11     6    32    1
    12     7    33    1
    13     9    20    2
    14    10    15    1
    15    10    17   ar
    16    10    18   ar
    17    11    17   ar
    18    11    20   ar
    19    11    30    1
    20    12    13    1
    21    12    14    1
    22    12    21    1
    23    13    16    1
    24    13    22    1
    25    14    15    1
    26    14    23    1
    27    14    24    1
    28    15    25    1
    29    16    26    1
    30    16    27    1
    31    18    19   ar
    32    18    29    1
    33    19    20   ar
    34    19    31    1
