@<TRIPOS>MOLECULE
gdp
 43 45 0 0 0
SMALL
GASTEIGER

@<TRIPOS>ATOM
      1 P           2.4207    0.8569    4.4326 P.3     1  UNL1        0.4834
      2 P           4.3299    0.3506    6.2598 P.3     1  UNL1        0.4808
      3 O          -1.0864    1.7421    3.3574 O.3     1  UNL1       -0.3456
      4 O          -3.4788    0.1394    1.1986 O.3     1  UNL1       -0.3847
      5 O          -2.1089   -1.1375    3.0389 O.3     1  UNL1       -0.3864
      6 O           1.9452    1.6467    3.1070 O.3     1  UNL1       -0.2837
      7 O           3.9527    1.2961    4.8610 O.3     1  UNL1       -0.1862
      8 O           2.6459   -0.5881    3.7625 O.3     1  UNL1       -0.3022
      9 O           1.5020    0.8599    5.6079 O.2     1  UNL1       -0.2269
     10 O          -1.4108    7.1238   -0.1573 O.2     1  UNL1       -0.2654
     11 O           4.2810   -1.0090    5.3347 O.3     1  UNL1       -0.3023
     12 O           5.8986    0.6719    5.9058 O.3     1  UNL1       -0.3023
     13 O           4.6674   -0.4956    7.5118 O.2     1  UNL1       -0.2271
     14 N          -2.3176    3.1415    1.8803 N.ar    1  UNL1       -0.2854
     15 N          -3.2647    4.9279    0.9249 N.ar    1  UNL1       -0.2286
     16 N           0.0266    3.6845    1.5361 N.ar    1  UNL1       -0.1963
     17 N           0.3056    5.7821    0.5060 N.ar    1  UNL1       -0.2934
     18 N           2.1378    4.4454    1.0510 N.pl3   1  UNL1       -0.3289
     19 C          -2.1886    0.7001    1.4821 C.3     1  UNL1        0.1285
     20 C          -1.3007   -0.3154    2.1766 C.3     1  UNL1        0.1135
     21 C          -2.2512    1.8305    2.5126 C.3     1  UNL1        0.1667
     22 C          -0.3490    0.5468    3.0175 C.3     1  UNL1        0.1134
     23 C           0.9678    0.9300    2.2908 C.3     1  UNL1        0.0879
     24 C          -1.2945    3.9428    1.4575 C.ar    1  UNL1        0.1712
     25 C          -3.4842    3.7615    1.5000 C.ar    1  UNL1        0.1005
     26 C          -1.9050    5.0434    0.9072 C.ar    1  UNL1        0.1721
     27 C          -1.0398    6.0835    0.3761 C.ar    1  UNL1        0.2803
     28 C           0.7936    4.6152    1.0456 C.ar    1  UNL1        0.1950
     29 H          -1.7390    1.0357    0.5413 H       1  UNL1        0.0665
     30 H          -0.7980   -0.9935    1.4819 H       1  UNL1        0.0647
     31 H          -3.1357    1.7448    3.1567 H       1  UNL1        0.0866
     32 H          -0.1315    0.0316    3.9554 H       1  UNL1        0.0647
     33 H           0.7647    1.5294    1.4045 H       1  UNL1        0.0592
     34 H           1.4460    0.0266    1.8959 H       1  UNL1        0.0592
     35 H          -3.3950   -0.4232    0.4064 H       1  UNL1        0.2101
     36 H          -3.0023   -1.1846    2.6420 H       1  UNL1        0.2100
     37 H          -4.4581    3.3124    1.6527 H       1  UNL1        0.1030
     38 H           0.9379    6.4527    0.1050 H       1  UNL1        0.1716
     39 H           3.5500   -0.9164    3.9856 H       1  UNL1        0.2220
     40 H           2.4109    3.6763    1.6606 H       1  UNL1        0.1451
     41 H           2.7078    5.2696    1.1830 H       1  UNL1        0.1451
     42 H           4.2738   -1.7412    5.9950 H       1  UNL1        0.2220
     43 H           6.2062    1.5234    6.2574 H       1  UNL1        0.2220
@<TRIPOS>BOND
     1     1     6    1
     2     1     7    1
     3     1     8    1
     4     1     9    2
     5     2     7    1
     6     2    11    1
     7     2    12    1
     8     2    13    2
     9     3    21    1
    10     3    22    1
    11    19     4    1
    12     4    35    1
    13    20     5    1
    14     5    36    1
    15     6    23    1
    16     8    39    1
    17    10    27    2
    18    11    42    1
    19    12    43    1
    20    14    24   ar
    21    14    25   ar
    22    15    25   ar
    23    15    26   ar
    24    16    24   ar
    25    16    28   ar
    26    17    27   ar
    27    17    28   ar
    28    17    38    1
    29    18    28    1
    30    18    40    1
    31    18    41    1
    32    19    20    1
    33    19    21    1
    34    19    29    1
    35    20    22    1
    36    20    30    1
    37    22    23    1
    38    22    32    1
    39    23    33    1
    40    23    34    1
    41    24    26   ar
    42    25    37    1
    43    26    27   ar
    44    21    31    1
    45    21    14    1
