@<TRIPOS>MOLECULE
gmp
 38 40 0 0 0
SMALL
GASTEIGER

@<TRIPOS>ATOM
      1 P           4.7641    1.4776    0.1085 P.3     1  UNL1        0.4724
      2 O           1.2278   -0.7992    1.0662 O.3     1  UNL1       -0.3456
      3 O          -0.6285   -2.7614   -1.3179 O.3     1  UNL1       -0.3847
      4 O           1.3452   -3.7365    0.3333 O.3     1  UNL1       -0.3864
      5 O           3.7578    0.3314    0.6521 O.3     1  UNL1       -0.2841
      6 O           3.9286    2.1901   -1.0787 O.3     1  UNL1       -0.3026
      7 O           5.8864    0.6263   -0.6856 O.3     1  UNL1       -0.3026
      8 O          -4.2430    3.0186   -0.4267 O.2     1  UNL1       -0.2654
      9 O           5.2985    2.4032    1.1621 O.2     1  UNL1       -0.2275
     10 N          -0.8696    0.0732    0.1733 N.ar    1  UNL1       -0.2854
     11 N          -1.3911    2.2038   -0.2633 N.ar    1  UNL1       -0.2286
     12 N          -3.0800   -0.8926    0.3748 N.ar    1  UNL1       -0.1963
     13 N          -4.7544    0.7867    0.0324 N.ar    1  UNL1       -0.2934
     14 N          -5.3617   -1.4415    0.4905 N.pl3   1  UNL1       -0.3289
     15 C           0.3728   -1.8742   -0.8611 C.3     1  UNL1        0.1285
     16 C           1.6480   -2.5818   -0.4482 C.3     1  UNL1        0.1135
     17 C          -0.0153   -1.1472    0.4222 C.3     1  UNL1        0.1667
     18 C           2.3037   -1.5544    0.4658 C.3     1  UNL1        0.1134
     19 C           3.2091   -0.5837   -0.2799 C.3     1  UNL1        0.0878
     20 C          -2.2318    0.1377    0.1621 C.ar    1  UNL1        0.1712
     21 C          -0.4096    1.3409   -0.0876 C.ar    1  UNL1        0.1005
     22 C          -2.5193    1.4539   -0.1077 C.ar    1  UNL1        0.1721
     23 C          -3.8922    1.8693   -0.1911 C.ar    1  UNL1        0.2803
     24 C          -4.3455   -0.5404    0.3043 C.ar    1  UNL1        0.1950
     25 H           0.5840   -1.1538   -1.6609 H       1  UNL1        0.0665
     26 H           2.2616   -2.9010   -1.2955 H       1  UNL1        0.0647
     27 H          -0.5960   -1.7762    1.1076 H       1  UNL1        0.0866
     28 H           2.8576   -2.0193    1.2892 H       1  UNL1        0.0647
     29 H           2.6432   -0.0205   -1.0282 H       1  UNL1        0.0592
     30 H           4.0167   -1.1291   -0.7777 H       1  UNL1        0.0592
     31 H          -0.2581   -3.2575   -2.0676 H       1  UNL1        0.2101
     32 H           2.1904   -4.1344    0.6036 H       1  UNL1        0.2100
     33 H           0.6450    1.5749   -0.1405 H       1  UNL1        0.1030
     34 H          -5.7529    0.9704   -0.0040 H       1  UNL1        0.1716
     35 H          -6.3345   -1.1607    0.4341 H       1  UNL1        0.1451
     36 H          -5.1684   -2.4168    0.6903 H       1  UNL1        0.1451
     37 H           4.3119    2.9759   -1.5233 H       1  UNL1        0.2220
     38 H           6.6737    1.0925   -1.0391 H       1  UNL1        0.2220
@<TRIPOS>BOND
     1     1     5    1
     2     1     6    1
     3     1     7    1
     4     1     9    2
     5     2    17    1
     6     2    18    1
     7     3    15    1
     8     3    31    1
     9     4    16    1
    10     4    32    1
    11     5    19    1
    12     6    37    1
    13     7    38    1
    14     8    23    2
    15    10    17    1
    16    10    20   ar
    17    10    21   ar
    18    11    21   ar
    19    11    22   ar
    20    12    20   ar
    21    12    24   ar
    22    13    23   ar
    23    13    24   ar
    24    13    34    1
    25    14    24    1
    26    14    35    1
    27    14    36    1
    28    15    16    1
    29    15    17    1
    30    15    25    1
    31    16    18    1
    32    16    26    1
    33    17    27    1
    34    18    19    1
    35    18    28    1
    36    19    29    1
    37    19    30    1
    38    20    22   ar
    39    21    33    1
    40    22    23   ar
