@<TRIPOS>MOLECULE
gtp
 48 50 0 0 0
SMALL
GASTEIGER

@<TRIPOS>ATOM
      1 P           2.5629    1.5681   -3.6586 P.3     1  UNL1        0.4835
      2 P           3.8959    1.1425   -6.0092 P.3     1  UNL1        0.4918
      3 P           2.5162   -0.0230   -8.2352 P.3     1  UNL1        0.4808
      4 O           0.0090    3.9161   -0.7450 O.3     1  UNL1       -0.3456
      5 O          -2.8644    4.4627   -2.9048 O.3     1  UNL1       -0.3847
      6 O          -2.7552    2.3872   -1.3015 O.3     1  UNL1       -0.3864
      7 O           1.2488    2.4124   -3.0897 O.3     1  UNL1       -0.2837
      8 O           2.5211    1.6061   -5.2939 O.3     1  UNL1       -0.1858
      9 O           1.3822    0.3099   -3.7839 O.3     1  UNL1       -0.3022
     10 O           3.6197    2.6942   -3.5464 O.2     1  UNL1       -0.2269
     11 O           0.4798   10.5040   -2.1210 O.2     1  UNL1       -0.2654
     12 O           3.6081    1.1459   -7.5761 O.3     1  UNL1       -0.1859
     13 O           4.9235    2.3645   -5.9285 O.3     1  UNL1       -0.3019
     14 O           4.4693   -0.1535   -5.5336 O.2     1  UNL1       -0.2265
     15 O           1.9149    1.2411   -9.0840 O.3     1  UNL1       -0.3023
     16 O           3.7277   -0.3747   -9.2808 O.3     1  UNL1       -0.3023
     17 O           1.5390   -1.0692   -8.8251 O.2     1  UNL1       -0.2271
     18 N          -0.3499    6.0645   -1.6294 N.ar    1  UNL1       -0.2854
     19 N           1.2309    7.5549   -2.1532 N.ar    1  UNL1       -0.2286
     20 N          -2.2396    7.5528   -1.2181 N.ar    1  UNL1       -0.1963
     21 N          -1.6124    9.8134   -1.5219 N.ar    1  UNL1       -0.2934
     22 N          -3.7746    9.2460   -0.9028 N.pl3   1  UNL1       -0.3289
     23 C          -1.5469    4.0650   -2.5364 C.3     1  UNL1        0.1285
     24 C          -1.5414    2.6297   -2.0411 C.3     1  UNL1        0.1135
     25 C          -0.9766    4.7988   -1.3277 C.3     1  UNL1        0.1667
     26 C          -0.3176    2.5762   -1.1349 C.3     1  UNL1        0.1134
     27 C           0.8853    1.9141   -1.7793 C.3     1  UNL1        0.0879
     28 C          -0.9548    7.2854   -1.5506 C.ar    1  UNL1        0.1712
     29 C           0.9605    6.2703   -1.9861 C.ar    1  UNL1        0.1005
     30 C           0.0467    8.1862   -1.8776 C.ar    1  UNL1        0.1721
     31 C          -0.2847    9.5866   -1.8650 C.ar    1  UNL1        0.2803
     32 C          -2.5255    8.8198   -1.2098 C.ar    1  UNL1        0.1950
     33 H          -0.8893    4.1709   -3.4066 H       1  UNL1        0.0665
     34 H          -1.5287    1.8990   -2.8557 H       1  UNL1        0.0647
     35 H          -1.7388    4.9744   -0.5570 H       1  UNL1        0.0866
     36 H          -0.5420    2.0310   -0.2101 H       1  UNL1        0.0647
     37 H           0.6158    0.8535   -1.8521 H       1  UNL1        0.0592
     38 H           1.7647    1.9854   -1.1325 H       1  UNL1        0.0592
     39 H          -3.4779    3.8843   -2.4062 H       1  UNL1        0.2101
     40 H          -2.6371    2.6632   -0.3736 H       1  UNL1        0.2100
     41 H           1.6707    5.4626   -2.0941 H       1  UNL1        0.1030
     42 H          -1.8774   10.7817   -1.4668 H       1  UNL1        0.1716
     43 H           0.6941    0.6337   -4.3986 H       1  UNL1        0.2220
     44 H          -4.4660    8.5099   -0.9648 H       1  UNL1        0.1451
     45 H          -4.0823   10.1192   -1.3025 H       1  UNL1        0.1451
     46 H           5.4157    2.4427   -5.0892 H       1  UNL1        0.2220
     47 H           0.9445    1.2166   -9.1201 H       1  UNL1        0.2220
     48 H           4.5813   -0.4885   -8.8289 H       1  UNL1        0.2220
@<TRIPOS>BOND
     1     1     7    1
     2     1     8    1
     3     1     9    1
     4     1    10    2
     5     2     8    1
     6     2    12    1
     7     2    13    1
     8     2    14    2
     9     3    12    1
    10     3    15    1
    11     3    16    1
    12     3    17    2
    13     4    25    1
    14     4    26    1
    15    23     5    1
    16     5    39    1
    17    24     6    1
    18     6    40    1
    19     7    27    1
    20     9    43    1
    21    11    31    2
    22    13    46    1
    23    15    47    1
    24    16    48    1
    25    18    28   ar
    26    18    29   ar
    27    19    29   ar
    28    19    30   ar
    29    20    28   ar
    30    20    32   ar
    31    21    31   ar
    32    21    32   ar
    33    21    42    1
    34    22    32    1
    35    22    44    1
    36    22    45    1
    37    23    24    1
    38    23    25    1
    39    23    33    1
    40    24    26    1
    41    24    34    1
    42    26    27    1
    43    26    36    1
    44    27    37    1
    45    27    38    1
    46    28    30   ar
    47    29    41    1
    48    30    31   ar
    49    25    35    1
    50    25    18    1
