@<TRIPOS>MOLECULE
imp
 36 38 0 0 0
SMALL
GASTEIGER

@<TRIPOS>ATOM
      1 P           4.4531    1.6449    0.0536 P.3     1  UNL1        0.4724
      2 O           1.0509   -0.7974    1.0863 O.3     1  UNL1       -0.3456
      3 O          -0.7304   -2.8850   -1.2479 O.3     1  UNL1       -0.3847
      4 O           1.3109   -3.7346    0.3905 O.3     1  UNL1       -0.3864
      5 O           3.5140    0.4561    0.6250 O.3     1  UNL1       -0.2841
      6 O           5.6082    0.8416   -0.7436 O.3     1  UNL1       -0.3026
      7 O           3.5677    2.2971   -1.1320 O.3     1  UNL1       -0.3026
      8 O          -4.6268    2.7204   -0.3897 O.2     1  UNL1       -0.2654
      9 O           4.9518    2.6113    1.0880 O.2     1  UNL1       -0.2275
     10 N          -1.0994   -0.0463    0.2090 N.ar    1  UNL1       -0.2855
     11 N          -1.7355    2.0492   -0.2489 N.ar    1  UNL1       -0.2286
     12 N          -3.2587   -1.1202    0.4528 N.ar    1  UNL1       -0.2178
     13 N          -5.0260    0.4747    0.1081 N.ar    1  UNL1       -0.3116
     14 C           0.2293   -1.9413   -0.8157 C.3     1  UNL1        0.1285
     15 C           1.5442   -2.5766   -0.4099 C.3     1  UNL1        0.1135
     16 C          -0.1803   -1.2176    0.4629 C.3     1  UNL1        0.1667
     17 C           2.1570   -1.5044    0.4820 C.3     1  UNL1        0.1134
     18 C           3.0020   -0.4988   -0.2878 C.3     1  UNL1        0.0878
     19 C          -2.4630   -0.0521    0.2150 C.ar    1  UNL1        0.1693
     20 C          -0.7089    1.2399   -0.0745 C.ar    1  UNL1        0.1005
     21 C          -2.8225    1.2457   -0.0689 C.ar    1  UNL1        0.1719
     22 C          -4.2187    1.5931   -0.1404 C.ar    1  UNL1        0.2790
     23 C          -4.5187   -0.7998    0.3865 C.ar    1  UNL1        0.0984
     24 H           0.3933   -1.2221   -1.6275 H       1  UNL1        0.0665
     25 H           2.1632   -2.8754   -1.2607 H       1  UNL1        0.0647
     26 H          -0.7194   -1.8662    1.1637 H       1  UNL1        0.0866
     27 H           2.7441   -1.9289    1.3044 H       1  UNL1        0.0647
     28 H           2.3987    0.0243   -1.0361 H       1  UNL1        0.0592
     29 H           3.8306   -1.0087   -0.7887 H       1  UNL1        0.0592
     30 H          -0.3440   -3.3717   -1.9957 H       1  UNL1        0.2101
     31 H           2.1787   -4.0847    0.6551 H       1  UNL1        0.2100
     32 H           0.3314    1.5269   -0.1442 H       1  UNL1        0.1030
     33 H          -5.3114   -1.5455    0.5531 H       1  UNL1        0.1028
     34 H          -6.0341    0.5990    0.0837 H       1  UNL1        0.1698
     35 H           6.3660    1.3428   -1.1133 H       1  UNL1        0.2220
     36 H           3.9045    3.0954   -1.5918 H       1  UNL1        0.2220
@<TRIPOS>BOND
     1     1     5    1
     2     1     6    1
     3     1     7    1
     4     1     9    2
     5     2    16    1
     6     2    17    1
     7     3    14    1
     8     3    30    1
     9     4    15    1
    10     4    31    1
    11     5    18    1
    12     6    35    1
    13     7    36    1
    14     8    22    2
    15    10    16    1
    16    10    19   ar
    17    10    20   ar
    18    11    20   ar
    19    11    21   ar
    20    12    19   ar
    21    12    23   ar
    22    13    22   ar
    23    13    23   ar
    24    13    34    1
    25    14    15    1
    26    14    16    1
    27    14    24    1
    28    15    17    1
    29    15    25    1
    30    16    26    1
    31    17    18    1
    32    17    27    1
    33    18    28    1
    34    18    29    1
    35    19    21   ar
    36    20    32    1
    37    21    22   ar
    38    23    33    1
