@<TRIPOS>MOLECULE
ppgpp
 53 55 0 0 0
SMALL
GASTEIGER

@<TRIPOS>ATOM
      1 P           3.1675   -1.3139   -0.5958 P.3     1  UNL1        0.4838
      2 P          -0.4147   -4.7678    4.6329 P.3     1  UNL1        0.4834
      3 P           5.1272   -1.1163   -2.4485 P.3     1  UNL1        0.4808
      4 P          -3.0494   -5.7403    4.7883 P.3     1  UNL1        0.4808
      5 O          -1.2786   -3.3706    0.5753 O.3     1  UNL1       -0.3456
      6 O           2.2885   -2.6184    0.0097 O.3     1  UNL1       -0.2776
      7 O           0.3344   -3.5722   -1.9823 O.3     1  UNL1       -0.3846
      8 O          -0.4798   -4.6086    2.9115 O.3     1  UNL1       -0.2837
      9 O           4.1489   -2.0781   -1.6474 O.3     1  UNL1       -0.1862
     10 O           4.3861   -1.6769    0.5773 O.3     1  UNL1       -0.3022
     11 O           2.0768   -0.9891   -1.6457 O.2     1  UNL1       -0.2269
     12 O          -1.5302   -5.9357    4.4020 O.3     1  UNL1       -0.1862
     13 O           0.8670   -5.7668    4.3616 O.3     1  UNL1       -0.3022
     14 O          -0.3563   -4.9103    6.1736 O.2     1  UNL1       -0.2269
     15 O          -3.5342    3.0538   -0.1764 O.2     1  UNL1       -0.2654
     16 O           5.5895   -0.0779   -1.3077 O.3     1  UNL1       -0.3023
     17 O           6.4408   -1.9839   -2.6897 O.3     1  UNL1       -0.3023
     18 O           4.6214   -0.4069   -3.6518 O.2     1  UNL1       -0.2271
     19 O          -3.7525   -6.8808    3.9120 O.3     1  UNL1       -0.3023
     20 O          -3.1352   -6.3438    6.2625 O.3     1  UNL1       -0.3023
     21 O          -3.6011   -4.3716    4.5946 O.2     1  UNL1       -0.2271
     22 N          -1.9663   -1.2330   -0.2036 N.ar    1  UNL1       -0.2854
     23 N          -2.7472    0.4058    1.1087 N.ar    1  UNL1       -0.2286
     24 N          -2.0372   -0.0976   -2.3682 N.ar    1  UNL1       -0.1963
     25 N          -2.8918    2.1085   -2.1489 N.ar    1  UNL1       -0.2934
     26 N          -2.2055    1.2910   -4.2136 N.pl3   1  UNL1       -0.3289
     27 C           0.8652   -2.4091    0.1353 C.3     1  UNL1        0.1283
     28 C           0.0117   -2.4337   -1.1591 C.3     1  UNL1        0.1294
     29 C           0.1330   -3.5184    0.8914 C.3     1  UNL1        0.1142
     30 C          -1.4057   -2.5191   -0.5956 C.3     1  UNL1        0.1667
     31 C           0.2865   -3.5091    2.4020 C.3     1  UNL1        0.0879
     32 C          -2.2392   -0.1674   -1.0244 C.ar    1  UNL1        0.1712
     33 C          -2.3211   -0.8417    1.0698 C.ar    1  UNL1        0.1005
     34 C          -2.7218    0.8158   -0.1936 C.ar    1  UNL1        0.1721
     35 C          -3.0987    2.0867   -0.7907 C.ar    1  UNL1        0.2803
     36 C          -2.3703    1.0539   -2.8853 C.ar    1  UNL1        0.1950
     37 H           0.7180   -1.4547    0.6598 H       1  UNL1        0.0656
     38 H           0.0820   -1.5621   -1.8053 H       1  UNL1        0.0666
     39 H           0.4404   -4.5078    0.5302 H       1  UNL1        0.0647
     40 H          -2.1151   -2.9899   -1.2835 H       1  UNL1        0.0866
     41 H           1.3366   -3.6288    2.6834 H       1  UNL1        0.0592
     42 H          -0.1040   -2.5877    2.8439 H       1  UNL1        0.0592
     43 H           0.0722   -4.3909   -1.5305 H       1  UNL1        0.2101
     44 H          -2.2459   -1.4940    1.9255 H       1  UNL1        0.1030
     45 H          -3.1652    2.9546   -2.6136 H       1  UNL1        0.1716
     46 H           5.1557   -1.0868    0.4208 H       1  UNL1        0.2220
     47 H           1.5958   -5.3926    3.8477 H       1  UNL1        0.2220
     48 H          -1.5847    0.6148   -4.6512 H       1  UNL1        0.1451
     49 H          -2.0170    2.2404   -4.4965 H       1  UNL1        0.1451
     50 H           5.5540    0.8312   -1.6767 H       1  UNL1        0.2220
     51 H           6.2823   -2.6832   -3.3524 H       1  UNL1        0.2220
     52 H          -3.7602   -6.6623    2.9646 H       1  UNL1        0.2220
     53 H          -2.5128   -5.9034    6.8712 H       1  UNL1        0.2220
@<TRIPOS>BOND
     1     1     6    1
     2     1     9    1
     3     1    10    1
     4     1    11    2
     5     2     8    1
     6     2    12    1
     7     2    13    1
     8     2    14    2
     9     3     9    1
    10     3    16    1
    11     3    17    1
    12     3    18    2
    13     4    12    1
    14     4    19    1
    15     4    20    1
    16     4    21    2
    17     5    29    1
    18     5    30    1
    19    28     7    1
    20     7    43    1
    21     8    31    1
    22    10    46    1
    23    13    47    1
    24    15    35    2
    25    16    50    1
    26    17    51    1
    27    19    52    1
    28    20    53    1
    29    30    22    1
    30    22    32   ar
    31    22    33   ar
    32    23    33   ar
    33    23    34   ar
    34    24    32   ar
    35    24    36   ar
    36    25    35   ar
    37    25    36   ar
    38    25    45    1
    39    26    36    1
    40    26    48    1
    41    26    49    1
    42    27    28    1
    43    27    29    1
    44    28    30    1
    45    28    38    1
    46    29    31    1
    47    29    39    1
    48    30    40    1
    49    31    41    1
    50    31    42    1
    51    32    34   ar
    52    33    44    1
    53    34    35   ar
    54    27    37    1
    55    27     6    1
