@<TRIPOS>MOLECULE
udp
 39 40 0 0 0
SMALL
GASTEIGER

@<TRIPOS>ATOM
      1 P          -3.1453    0.9424    0.8620 P.3     1  UNL1        0.4834
      2 P          -3.9733   -1.3050   -0.8461 P.3     1  UNL1        0.4808
      3 O           1.1316    1.4751    1.1102 O.3     1  UNL1       -0.3456
      4 O           2.2608    3.9082   -0.2294 O.3     1  UNL1       -0.3864
      5 O           3.2950    1.8732   -1.7218 O.3     1  UNL1       -0.3847
      6 O          -1.6708    1.5807    1.0564 O.3     1  UNL1       -0.2837
      7 O           4.5944   -0.5270    0.1692 O.2     1  UNL1       -0.2464
      8 O          -2.9171   -0.3116   -0.1325 O.3     1  UNL1       -0.1862
      9 O          -3.9288    2.0123   -0.0646 O.3     1  UNL1       -0.3022
     10 O          -3.8533    0.5938    2.1390 O.2     1  UNL1       -0.2269
     11 O           2.1898   -4.4592    0.1939 O.2     1  UNL1       -0.2677
     12 O          -4.6274   -2.1007    0.3994 O.3     1  UNL1       -0.3023
     13 O          -3.0285   -2.4126   -1.5482 O.3     1  UNL1       -0.3023
     14 O          -4.9530   -0.6269   -1.7576 O.2     1  UNL1       -0.2271
     15 N           2.2646   -0.3958    0.2854 N.ar    1  UNL1       -0.2715
     16 N           3.3952   -2.4841    0.1809 N.ar    1  UNL1       -0.2749
     17 C           1.3436    2.9405   -0.7389 C.3     1  UNL1        0.1135
     18 C           2.0669    1.6496   -1.0600 C.3     1  UNL1        0.1286
     19 C           0.4268    2.5174    0.4007 C.3     1  UNL1        0.1134
     20 C           2.2488    1.0389    0.3189 C.3     1  UNL1        0.1679
     21 C          -0.9038    1.9505   -0.0759 C.3     1  UNL1        0.0879
     22 C           3.4967   -1.0868    0.2088 C.ar    1  UNL1        0.3314
     23 C           1.0693   -1.1041    0.3283 C.ar    1  UNL1        0.0171
     24 C           0.9885   -2.4360    0.3009 C.ar    1  UNL1        0.0192
     25 C           2.2292   -3.2329    0.2209 C.ar    1  UNL1        0.2539
     26 H           0.8315    3.3856   -1.5958 H       1  UNL1        0.0647
     27 H           1.4368    1.0223   -1.7020 H       1  UNL1        0.0665
     28 H           0.2525    3.3265    1.1191 H       1  UNL1        0.0647
     29 H           3.1670    1.3990    0.7982 H       1  UNL1        0.0867
     30 H          -0.7748    1.0800   -0.7236 H       1  UNL1        0.0592
     31 H          -1.4499    2.7153   -0.6380 H       1  UNL1        0.0592
     32 H           2.6485    3.5738    0.5964 H       1  UNL1        0.2100
     33 H           3.7360    1.0121   -1.8174 H       1  UNL1        0.2101
     34 H           0.1499   -0.5413    0.3894 H       1  UNL1        0.0813
     35 H           4.2683   -3.0012    0.1258 H       1  UNL1        0.1734
     36 H           0.0378   -2.9538    0.3363 H       1  UNL1        0.0686
     37 H          -4.3048    2.8160    0.3536 H       1  UNL1        0.2220
     38 H          -5.3735   -2.7148    0.2316 H       1  UNL1        0.2220
     39 H          -3.4405   -3.0947   -2.1201 H       1  UNL1        0.2220
@<TRIPOS>BOND
     1     1     6    1
     2     1     8    1
     3     1     9    1
     4     1    10    2
     5     2     8    1
     6     2    12    1
     7     2    13    1
     8     2    14    2
     9     3    19    1
    10     3    20    1
    11     4    17    1
    12     4    32    1
    13     5    18    1
    14     5    33    1
    15     6    21    1
    16     7    22    2
    17     9    37    1
    18    11    25    2
    19    12    38    1
    20    13    39    1
    21    15    20    1
    22    15    22   ar
    23    15    23   ar
    24    16    22   ar
    25    16    25   ar
    26    16    35    1
    27    17    18    1
    28    17    19    1
    29    17    26    1
    30    18    20    1
    31    18    27    1
    32    19    21    1
    33    19    28    1
    34    20    29    1
    35    21    30    1
    36    21    31    1
    37    23    24   ar
    38    23    34    1
    39    24    25   ar
    40    24    36    1
