@<TRIPOS>MOLECULE
ump
 34 35 0 0 0
SMALL
GASTEIGER

@<TRIPOS>ATOM
      1 P           3.7810   -1.4184   -0.0462 P.3     1  UNL1        0.4724
      2 O           0.3580    0.9743   -1.1323 O.3     1  UNL1       -0.3456
      3 O           0.4549    3.8646   -0.3406 O.3     1  UNL1       -0.3864
      4 O          -1.5670    2.8905    1.2091 O.3     1  UNL1       -0.3847
      5 O           2.8366   -0.2319   -0.6136 O.3     1  UNL1       -0.2841
      6 O          -3.7077    1.0524   -0.5413 O.2     1  UNL1       -0.2464
      7 O           2.8594   -2.1429    1.0678 O.3     1  UNL1       -0.3026
      8 O           4.8739   -0.6191    0.8380 O.3     1  UNL1       -0.3026
      9 O           4.3551   -2.3271   -1.0936 O.2     1  UNL1       -0.2275
     10 O          -3.5449   -3.4633    0.3680 O.2     1  UNL1       -0.2677
     11 N          -1.6120    0.0550   -0.2730 N.ar    1  UNL1       -0.2715
     12 N          -3.6246   -1.1961   -0.0878 N.ar    1  UNL1       -0.2749
     13 C           0.7331    2.7039    0.4423 C.3     1  UNL1        0.1135
     14 C          -0.5542    1.9930    0.8030 C.3     1  UNL1        0.1286
     15 C           1.4191    1.6848   -0.4571 C.3     1  UNL1        0.1134
     16 C          -0.8928    1.2773   -0.4933 C.3     1  UNL1        0.1679
     17 C           2.2551    0.6701    0.3114 C.3     1  UNL1        0.0878
     18 C          -3.0261    0.0499   -0.3176 C.ar    1  UNL1        0.3314
     19 C          -0.9181   -1.1218   -0.0162 C.ar    1  UNL1        0.0171
     20 C          -1.5026   -2.3018    0.2010 C.ar    1  UNL1        0.0192
     21 C          -2.9762   -2.3935    0.1721 C.ar    1  UNL1        0.2539
     22 H           1.3219    3.0191    1.3076 H       1  UNL1        0.0647
     23 H          -0.3698    1.2861    1.6210 H       1  UNL1        0.0665
     24 H           2.0282    2.1577   -1.2359 H       1  UNL1        0.0647
     25 H          -1.4721    1.9208   -1.1663 H       1  UNL1        0.0867
     26 H           1.6581    0.1133    1.0374 H       1  UNL1        0.0592
     27 H           3.0523    1.1906    0.8523 H       1  UNL1        0.0592
     28 H           0.0255    3.5931   -1.1688 H       1  UNL1        0.2100
     29 H          -2.3796    2.3732    1.3410 H       1  UNL1        0.2101
     30 H           0.1604   -1.0779    0.0065 H       1  UNL1        0.0813
     31 H          -4.6401   -1.2233   -0.1150 H       1  UNL1        0.1734
     32 H          -0.9285   -3.1990    0.3973 H       1  UNL1        0.0686
     33 H           3.1963   -2.9509    1.5101 H       1  UNL1        0.2220
     34 H           5.6273   -1.1152    1.2232 H       1  UNL1        0.2220
@<TRIPOS>BOND
     1     1     5    1
     2     1     7    1
     3     1     8    1
     4     1     9    2
     5     2    15    1
     6     2    16    1
     7     3    13    1
     8     3    28    1
     9     4    14    1
    10     4    29    1
    11     5    17    1
    12     6    18    2
    13     7    33    1
    14     8    34    1
    15    10    21    2
    16    11    16    1
    17    11    18   ar
    18    11    19   ar
    19    12    18   ar
    20    12    21   ar
    21    12    31    1
    22    13    14    1
    23    13    15    1
    24    13    22    1
    25    14    16    1
    26    14    23    1
    27    15    17    1
    28    15    24    1
    29    16    25    1
    30    17    26    1
    31    17    27    1
    32    19    20   ar
    33    19    30    1
    34    20    21   ar
    35    20    32    1
