@<TRIPOS>MOLECULE
utp
 44 45 0 0 0
SMALL
GASTEIGER

@<TRIPOS>ATOM
      1 P           1.6103   -2.3667   -0.0430 P.3     1  UNL1        0.4835
      2 P           4.2196   -1.2152    0.6861 P.3     1  UNL1        0.4918
      3 P           4.6114    1.3720   -0.6762 P.3     1  UNL1        0.4808
      4 O          -1.1360    0.8403   -0.9728 O.3     1  UNL1       -0.3456
      5 O          -0.4354    3.5530    0.0950 O.3     1  UNL1       -0.3864
      6 O          -2.7007    2.9342    1.4820 O.3     1  UNL1       -0.3847
      7 O           0.9826   -0.9444   -0.4917 O.3     1  UNL1       -0.2837
      8 O          -5.1059    1.7901   -0.5008 O.2     1  UNL1       -0.2464
      9 O           2.8224   -1.9792    0.9524 O.3     1  UNL1       -0.1858
     10 O           0.5025   -2.9992    0.9519 O.3     1  UNL1       -0.3022
     11 O           2.0096   -3.2654   -1.1771 O.2     1  UNL1       -0.2269
     12 O          -6.0045   -2.7055   -0.0243 O.2     1  UNL1       -0.2677
     13 O           3.7622    0.1674   -0.0133 O.3     1  UNL1       -0.1859
     14 O           4.8906   -2.0469   -0.5268 O.3     1  UNL1       -0.3019
     15 O           5.0950   -1.0449    1.8927 O.2     1  UNL1       -0.2265
     16 O           3.4788    2.4735   -1.0176 O.3     1  UNL1       -0.3023
     17 O           5.3982    2.0176    0.5792 O.3     1  UNL1       -0.3023
     18 O           5.4748    0.9655   -1.8340 O.2     1  UNL1       -0.2271
     19 N          -3.3031    0.3225   -0.2659 N.ar    1  UNL1       -0.2715
     20 N          -5.5514   -0.4490   -0.2626 N.ar    1  UNL1       -0.2749
     21 C          -0.4646    2.2962    0.7710 C.3     1  UNL1        0.1135
     22 C          -1.8950    1.8684    1.0226 C.3     1  UNL1        0.1286
     23 C           0.0212    1.2294   -0.2007 C.3     1  UNL1        0.1134
     24 C          -2.3184    1.3634   -0.3460 C.3     1  UNL1        0.1679
     25 C           0.5684   -0.0115    0.4919 C.3     1  UNL1        0.0879
     26 C          -4.6782    0.6432   -0.3537 C.ar    1  UNL1        0.3314
     27 C          -2.9042   -0.9990   -0.1022 C.ar    1  UNL1        0.0171
     28 C          -3.7483   -2.0293   -0.0170 C.ar    1  UNL1        0.0192
     29 C          -5.2017   -1.7804   -0.0992 C.ar    1  UNL1        0.2539
     30 H           0.1352    2.3927    1.6797 H       1  UNL1        0.0647
     31 H          -1.9236    1.0661    1.7699 H       1  UNL1        0.0665
     32 H           0.7586    1.6162   -0.9126 H       1  UNL1        0.0647
     33 H          -2.7037    2.1777   -0.9712 H       1  UNL1        0.0867
     34 H          -0.1781   -0.4821    1.1363 H       1  UNL1        0.0592
     35 H           1.4231    0.2607    1.1180 H       1  UNL1        0.0592
     36 H          -0.8715    3.4590   -0.7683 H       1  UNL1        0.2100
     37 H          -2.2999    3.2711    2.3013 H       1  UNL1        0.2101
     38 H          -1.8459   -1.2040   -0.0433 H       1  UNL1        0.0813
     39 H          -6.5445   -0.2420   -0.3232 H       1  UNL1        0.1734
     40 H          -3.4003   -3.0471    0.1096 H       1  UNL1        0.0686
     41 H          -0.2880   -3.4337    0.5665 H       1  UNL1        0.2220
     42 H           5.3326   -2.9001   -0.3301 H       1  UNL1        0.2220
     43 H           3.7331    3.2766   -1.5199 H       1  UNL1        0.2220
     44 H           6.0517    2.7304    0.4146 H       1  UNL1        0.2220
@<TRIPOS>BOND
     1     1     7    1
     2     1     9    1
     3     1    10    1
     4     1    11    2
     5     2     9    1
     6     2    13    1
     7     2    14    1
     8     2    15    2
     9     3    13    1
    10     3    16    1
    11     3    17    1
    12     3    18    2
    13     4    23    1
    14     4    24    1
    15     5    21    1
    16     5    36    1
    17     6    22    1
    18     6    37    1
    19     7    25    1
    20     8    26    2
    21    10    41    1
    22    12    29    2
    23    14    42    1
    24    16    43    1
    25    17    44    1
    26    19    24    1
    27    19    26   ar
    28    19    27   ar
    29    20    26   ar
    30    20    29   ar
    31    20    39    1
    32    21    22    1
    33    21    23    1
    34    21    30    1
    35    22    24    1
    36    22    31    1
    37    23    25    1
    38    23    32    1
    39    24    33    1
    40    25    34    1
    41    25    35    1
    42    27    28   ar
    43    27    38    1
    44    28    29   ar
    45    28    40    1
