@<TRIPOS>MOLECULE
amide
5 4
SMALL
NO_CHARGES

@<TRIPOS>ATOM
      1 C1          0.0000    0.0000    0.0000 C.2       1 FRAG1       0.0000
      2 O1          1.2200    0.0000    0.0000 O.2       1 FRAG1       0.0000
      3 N1         -0.6650    1.1520    0.0000 N.am      1 FRAG1       0.0000
      4 H1         -1.6650    1.1520    0.0000 H         1 FRAG1       0.0000
      5 H2         -0.2000    2.0800    0.3500 H         1 FRAG1       0.0000
@<TRIPOS>BOND
     1     1     2    2
     2     1     3    1
     3     3     4    1
     4     3     5    1
