@<TRIPOS>MOLECULE
amino
3 2
SMALL
NO_CHARGES

@<TRIPOS>ATOM
      1 N1          0.0000    0.0000    0.0000 N.3       1 FRAG1       0.0000
      2 H1         -0.7882    0.2444   -0.6557 H         1 FRAG1       0.0000
      3 H2          0.3232   -0.9850   -0.1905 H         1 FRAG1       0.0000
@<TRIPOS>BOND
     1     1     2    1
     2     1     3    1
