@<TRIPOS>MOLECULE
carboxylate
3 2
SMALL
NO_CHARGES

@<TRIPOS>ATOM
      1 C1         0.0063   -0.0236    0.0976 C.2    1 FRAG1       0.0000
      2 O1        -0.7504   -0.7181    0.8270 O.2    1 FRAG1       0.0000
      3 O2         1.0319   -0.3361   -0.5637 O.3    1 FRAG1       0.0000
@<TRIPOS>BOND
     1     1     2    2
     2     1     3    1
@<TRIPOS>UNITY_ATOM_ATTR
3 1
charge -1
