@<TRIPOS>MOLECULE
carboxyl
4 3
SMALL
NO_CHARGES

@<TRIPOS>ATOM
      1 C1          0.0000    0.0000    0.0000 C.2       1 FRAG1       0.0000
      2 O1          1.2502    0.0000    0.0000 O.2       1 FRAG1       0.0000
      3 O2         -0.7185    1.2445    0.0000 O.3       1 FRAG1       0.0000
      4 H1         -0.8911    1.5434    0.9747 H         1 FRAG1       0.0000
@<TRIPOS>BOND
     1     1     2    2
     2     1     3    1
     3     3     4    1
