@<TRIPOS>MOLECULE
formamido
5 4
SMALL
NO_CHARGES

@<TRIPOS>ATOM
      1 N1        -0.6866   -0.0339    0.0859 N.2    1 FRAG1       0.0000
      2 C1         0.6591    0.0487   -0.0832 C.2    1 FRAG1       0.0000
      3 O1         1.3891   -0.9285   -0.1320 O.2    1 FRAG1       0.0000
      4 H1        -1.0999   -0.9529    0.1753 H      1 FRAG1       0.0000
      5 H2         1.0206    1.0860   -0.1711 H      1 FRAG1       0.0000
@<TRIPOS>BOND
     1     1     2    1
     2     2     3    2
     3     1     4    1
     4     2     5    1
