@<TRIPOS>MOLECULE
furyl
8 8
SMALL
NO_CHARGES

@<TRIPOS>ATOM
      1 O1          0.0000    1.1740    0.0000 O.3       1 FRAG1       0.0000
      2 C2          1.1160    0.3630    0.0000 C.2       1 FRAG1       0.0000
      3 C3          0.6900   -0.9500    0.0000 C.2       1 FRAG1       0.0000
      4 C4         -0.6900   -0.9500    0.0000 C.2       1 FRAG1       0.0000
      5 C5         -1.1160    0.3630    0.0000 C.2       1 FRAG1       0.0000
      6 H3          1.3250   -1.8240    0.0000 H         1 FRAG1       0.0000
      7 H4         -1.3250   -1.8240    0.0000 H         1 FRAG1       0.0000
      8 H5         -2.1430    0.6970    0.0000 H         1 FRAG1       0.0000
@<TRIPOS>BOND
     1     1     2    1
     2     2     3    2
     3     3     4    1
     4     4     5    2
     5     5     1    1
     6     3     6    1
     7     4     7    1
     8     5     8    1
