@<TRIPOS>MOLECULE
methyl
4 3
SMALL
NO_CHARGES

@<TRIPOS>ATOM
      1 C1          0.0000    0.0000    0.0000 C.3       1 FRAG1       0.0000
      2 H1         -0.8308    0.2576   -0.6911 H         1 FRAG1       0.0000
      3 H2          0.3407   -1.0382   -0.2008 H         1 FRAG1       0.0000
      4 H3         -0.3541    0.0772    1.0502 H         1 FRAG1       0.0000
@<TRIPOS>BOND
     1     1     2    1
     2     1     3    1
     3     1     4    1
