@<TRIPOS>MOLECULE
methoxy
5 4
SMALL
NO_CHARGES

@<TRIPOS>ATOM
      1 O1          0.0000    0.0000    0.0000 O.3       1 FRAG1       0.0000
      2 C1          1.4300    0.0000    0.0000 C.3       1 FRAG1       0.0000
      3 H1          1.8100    1.0100    0.2000 H         1 FRAG1       0.0000
      4 H2          1.8100   -0.6500    0.8300 H         1 FRAG1       0.0000
      5 H3          1.8100   -0.5500   -0.9200 H         1 FRAG1       0.0000
@<TRIPOS>BOND
     1     1     2    1
     2     2     3    1
     3     2     4    1
     4     2     5    1
