@<TRIPOS>MOLECULE
methylsulfonyl
7 6
SMALL
NO_CHARGES

@<TRIPOS>ATOM
      1 S1         0.8553   -0.0188    0.0075 S.o2   1 FRAG1       0.0000
      2 O1         1.3094   -1.0690   -0.8815 O.2    1 FRAG1       0.0000
      3 O2         1.3144    0.0664    1.3792 O.2    1 FRAG1       0.0000
      4 C1        -0.9154   -0.0281    0.0162 C.3    1 FRAG1       0.0000
      5 H1        -1.2534   -0.9554    0.4827 H      1 FRAG1       0.0000
      6 H2        -1.2676    0.0271   -1.0152 H      1 FRAG1       0.0000
      7 H3        -1.2641    0.8328    0.5889 H      1 FRAG1       0.0000
@<TRIPOS>BOND
     1     1     2    2
     2     1     3    2
     3     1     4    1
     4     4     5    1
     5     4     6    1
     6     4     7    1
