@<TRIPOS>MOLECULE
nitro
3 2
SMALL
NO_CHARGES

@<TRIPOS>ATOM
      1 N1        -0.0039    0.0165    0.0949 N.pl3  1 FRAG1       0.0000
      2 O1        -0.7414   -0.6709    0.8057 O.2    1 FRAG1       0.0000
      3 O2         0.9854   -0.3512   -0.5434 O.3    1 FRAG1       0.0000
@<TRIPOS>BOND
     1     1     2    2
     2     1     3    1
@<TRIPOS>UNITY_ATOM_ATTR
1 1
charge 1
3 1
charge -1
