@<TRIPOS>MOLECULE
pentyl
16 15
SMALL
NO_CHARGES

@<TRIPOS>ATOM
      1 C1          0.0000    0.0000    0.0000 C.3       1 FRAG1       0.0000
      2 C2          1.2500    0.7000    0.0000 C.3       1 FRAG1       0.0000
      3 C3          2.5000    0.0000    0.0000 C.3       1 FRAG1       0.0000
      4 C4          3.7500    0.7000    0.0000 C.3       1 FRAG1       0.0000
      5 C5          5.0000    0.0000    0.0000 C.3       1 FRAG1       0.0000
      6 H1a        -0.3000   -0.5000    0.8500 H         1 FRAG1       0.0000
      7 H1b        -0.3000   -0.5000   -0.8500 H         1 FRAG1       0.0000
      8 H2a         1.2500    1.4500    0.8500 H         1 FRAG1       0.0000
      9 H2b         1.2500    1.4500   -0.8500 H         1 FRAG1       0.0000
     10 H3a         2.5000   -0.7500    0.8500 H         1 FRAG1       0.0000
     11 H3b         2.5000   -0.7500   -0.8500 H         1 FRAG1       0.0000
     12 H4a         3.7500    1.4500    0.8500 H         1 FRAG1       0.0000
     13 H4b         3.7500    1.4500   -0.8500 H         1 FRAG1       0.0000
     14 H5a         5.0000   -0.7500    0.8500 H         1 FRAG1       0.0000
     15 H5b         5.0000   -0.7500   -0.8500 H         1 FRAG1       0.0000
     16 H5c         6.0000    0.0000    0.0000 H         1 FRAG1       0.0000
@<TRIPOS>BOND
     1     1     2    1
     2     2     3    1
     3     3     4    1
     4     4     5    1
     5     1     6    1
     6     1     7    1
     7     2     8    1
     8     2     9    1
     9     3    10    1
    10     3    11    1
    11     4    12    1
    12     4    13    1
    13     5    14    1
    14     5    15    1
    15     5    16    1
