@<TRIPOS>MOLECULE
phenyl
11 11
SMALL
NO_CHARGES

@<TRIPOS>ATOM
      1 C1          1.4000    0.0000    0.0000 C.2       1 FRAG1       0.0000
      2 C2          0.7000    1.2120    0.0000 C.2       1 FRAG1       0.0000
      3 C3         -0.7000    1.2120    0.0000 C.2       1 FRAG1       0.0000
      4 C4         -1.4000    0.0000    0.0000 C.2       1 FRAG1       0.0000
      5 C5         -0.7000   -1.2120    0.0000 C.2       1 FRAG1       0.0000
      6 C6          0.7000   -1.2120    0.0000 C.2       1 FRAG1       0.0000
      7 H2          1.2400    2.1470    0.0000 H         1 FRAG1       0.0000
      8 H3         -1.2400    2.1470    0.0000 H         1 FRAG1       0.0000
      9 H4         -2.4800    0.0000    0.0000 H         1 FRAG1       0.0000
     10 H5         -1.2400   -2.1470    0.0000 H         1 FRAG1       0.0000
     11 H6          1.2400   -2.1470    0.0000 H         1 FRAG1       0.0000
@<TRIPOS>BOND
     1     1     2    2
     2     2     3    1
     3     3     4    2
     4     4     5    1
     5     5     6    2
     6     6     1    1
     7     2     7    1
     8     3     8    1
     9     4     9    1
    10     5    10    1
    11     6    11    1
