@<TRIPOS>MOLECULE
phosphono
6 5
SMALL
NO_CHARGES

@<TRIPOS>ATOM
      1 P1        -0.0814   -0.5231    0.0481 P      1 FRAG1       0.0000
      2 O1        -0.5073   -1.1135    1.3554 O.2    1 FRAG1       0.0000
      3 O2        -1.0858    0.6734   -0.3399 O.3    1 FRAG1       0.0000
      4 O3         1.2381    0.3826    0.2279 O.3    1 FRAG1       0.0000
      5 H1        -1.3434    1.1551    0.4711 H      1 FRAG1       0.0000
      6 H2         1.6477    0.6584   -0.6119 H      1 FRAG1       0.0000
@<TRIPOS>BOND
     1     1     2    2
     2     1     3    1
     3     1     4    1
     4     3     5    1
     5     4     6    1
