@<TRIPOS>MOLECULE
trifluoromethyl
4 3
SMALL
NO_CHARGES

@<TRIPOS>ATOM
      1 C1          0.0000    0.0000    0.0000 C.3       1 FRAG1       0.0000
      2 F1         -1.0656    0.3305   -0.8865 F         1 FRAG1       0.0000
      3 F2          0.4370   -1.3317   -0.2576 F         1 FRAG1       0.0000
      4 F3         -0.4542    0.0991    1.3470 F         1 FRAG1       0.0000
@<TRIPOS>BOND
     1     1     2    1
     2     1     3    1
     3     1     4    1
