@<TRIPOS>MOLECULE
ascorbic_acid
 20 20 0 0 0
SMALL
GASTEIGER

@<TRIPOS>ATOM
      1 O           0.0932   -1.1066    0.6445 O.3     1  UNL1       -0.4450
      2 O          -1.3436    0.0892   -1.3863 O.3     1  UNL1       -0.3854
      3 O           0.8392    2.3901    0.2844 O.2     1  UNL1       -0.5042
      4 O          -3.8929   -0.2040   -0.3326 O.3     1  UNL1       -0.3923
      5 O           3.0220    0.5695   -0.6056 O.2     1  UNL1       -0.4988
      6 O           1.9915   -2.1560   -0.1376 O.2     1  UNL1       -0.2414
      7 C          -0.3397    0.2618    0.7853 C.3     1  UNL1        0.1912
      8 C          -1.6059    0.4585   -0.0330 C.3     1  UNL1        0.1222
      9 C           0.8212    1.0265    0.2887 C.2     1  UNL1        0.1863
     10 C          -2.7464   -0.4082    0.4863 C.3     1  UNL1        0.0741
     11 C           1.8077    0.2273   -0.1049 C.2     1  UNL1        0.2437
     12 C           1.3536   -1.1481    0.1108 C.2     1  UNL1        0.3783
     13 H          -0.5154    0.4609    1.8484 H       1  UNL1        0.0845
     14 H          -1.9162    1.5092   -0.0432 H       1  UNL1        0.0658
     15 H          -2.4989   -1.4735    0.4351 H       1  UNL1        0.0584
     16 H          -3.0013   -0.1462    1.5179 H       1  UNL1        0.0584
     17 H          -1.0999   -0.8522   -1.3986 H       1  UNL1        0.2101
     18 H           0.0039    2.6957    0.6780 H       1  UNL1        0.2920
     19 H          -4.6023   -0.7644    0.0257 H       1  UNL1        0.2095
     20 H           3.5024   -0.2572   -0.7856 H       1  UNL1        0.2925
@<TRIPOS>BOND
     1     1     7    1
     2     1    12    1
     3     2     8    1
     4     2    17    1
     5     3     9    1
     6     3    18    1
     7     4    10    1
     8     4    19    1
     9     5    11    1
    10     5    20    1
    11     6    12    2
    12     7     8    1
    13     7     9    1
    14     7    13    1
    15     8    10    1
    16     8    14    1
    17     9    11    2
    18    10    15    1
    19    10    16    1
    20    11    12    1
