@<TRIPOS>MOLECULE
cmp_neu5ac
 72 74 0 0 0
SMALL
GASTEIGER

@<TRIPOS>ATOM
      1 P          -2.7278   -2.3317   -0.8067 P.3     1  UNL1        0.4779
      2 O          -2.6687    0.8376   -0.2107 O.3     1  UNL1       -0.3316
      3 O          -2.4525   -1.4179    0.4990 O.3     1  UNL1       -0.2424
      4 O           2.2386   -2.8382   -1.0065 O.3     1  UNL1       -0.3456
      5 O          -1.9233    1.4350    3.8108 O.3     1  UNL1       -0.3897
      6 O          -1.8245    3.4451   -0.7691 O.3     1  UNL1       -0.3865
      7 O          -1.3660   -3.1833   -1.0157 O.3     1  UNL1       -0.2839
      8 O           1.7025   -4.5890    1.3676 O.3     1  UNL1       -0.3864
      9 O           2.5566   -2.2692    2.5197 O.3     1  UNL1       -0.3847
     10 O          -0.2870    0.6211   -2.5185 O.3     1  UNL1       -0.3869
     11 O          -5.1099   -1.4243    0.9596 O.3     1  UNL1       -0.4769
     12 O          -5.0828    0.0847   -0.7487 O.2     1  UNL1       -0.2449
     13 O          -2.6968   -1.2840   -2.0401 O.3     1  UNL1       -0.3024
     14 O          -0.7886    2.1539   -4.7516 O.3     1  UNL1       -0.3924
     15 O          -3.9784   -3.1603   -0.7377 O.2     1  UNL1       -0.2272
     16 O          -0.2628    4.4637    2.2469 O.2     1  UNL1       -0.2761
     17 O           5.3027   -1.0730    1.0694 O.2     1  UNL1       -0.2444
     18 N           0.1091    2.2010    1.8465 N.am    1  UNL1       -0.3076
     19 N           3.4262   -0.9644   -0.2695 N.ar    1  UNL1       -0.2700
     20 N           5.0442    0.8221   -0.1525 N.ar    1  UNL1       -0.1783
     21 N           4.7725    2.7622   -1.4058 N.pl3   1  UNL1       -0.3430
     22 C          -1.2492    1.8337    1.5142 C.3     1  UNL1        0.0779
     23 C          -1.3360    1.2718    0.0854 C.3     1  UNL1        0.1114
     24 C          -1.7845    0.8188    2.5325 C.3     1  UNL1        0.0815
     25 C          -3.1560    0.2976    2.1076 C.3     1  UNL1        0.0409
     26 C          -3.1393   -0.1852    0.6593 C.3     1  UNL1        0.2815
     27 C          -0.9746    2.3182   -0.9658 C.3     1  UNL1        0.1111
     28 C           0.9755   -3.3711   -0.5516 C.3     1  UNL1        0.1134
     29 C           1.0508   -3.3833    0.9691 C.3     1  UNL1        0.1135
     30 C           1.9372   -2.1890    1.2524 C.3     1  UNL1        0.1286
     31 C          -1.1051    1.7906   -2.4001 C.3     1  UNL1        0.1065
     32 C           2.9347   -2.2586    0.1090 C.3     1  UNL1        0.1680
     33 C          -4.5325   -0.4677    0.1923 C.2     1  UNL1        0.3658
     34 C          -0.1367   -2.4824   -1.0922 C.3     1  UNL1        0.0879
     35 C          -0.6460    2.7725   -3.4756 C.3     1  UNL1        0.0727
     36 C           0.4829    3.4897    2.1849 C.2     1  UNL1        0.2103
     37 C           2.6958   -0.2145   -1.1786 C.ar    1  UNL1        0.0152
     38 C           1.9494    3.5903    2.5088 C.3     1  UNL1        0.0122
     39 C           4.6306   -0.4336    0.2582 C.ar    1  UNL1        0.3522
     40 C           3.0760    0.9951   -1.5852 C.ar    1  UNL1       -0.0056
     41 C           4.3438    1.5161   -1.0109 C.ar    1  UNL1        0.1230
     42 H          -1.8813    2.7270    1.5991 H       1  UNL1        0.0550
     43 H          -0.6530    0.4236   -0.0090 H       1  UNL1        0.0643
     44 H          -1.0809   -0.0166    2.6386 H       1  UNL1        0.0614
     45 H          -3.4584   -0.5048    2.7924 H       1  UNL1        0.0349
     46 H          -3.8936    1.1026    2.2313 H       1  UNL1        0.0349
     47 H           0.0596    2.6435   -0.7985 H       1  UNL1        0.0646
     48 H           0.8775   -4.3839   -0.9588 H       1  UNL1        0.0647
     49 H           0.0839   -3.3376    1.4785 H       1  UNL1        0.0647
     50 H           1.3425   -1.2681    1.2176 H       1  UNL1        0.0665
     51 H          -2.1388    1.4959   -2.6157 H       1  UNL1        0.0643
     52 H           0.8144    1.4694    1.8325 H       1  UNL1        0.1491
     53 H           3.7810   -2.9097    0.3587 H       1  UNL1        0.0867
     54 H          -0.1848   -1.5408   -0.5483 H       1  UNL1        0.0592
     55 H           0.0464   -2.2436   -2.1453 H       1  UNL1        0.0592
     56 H          -2.2498    0.7587    4.4286 H       1  UNL1        0.2099
     57 H           0.4109    3.0273   -3.3466 H       1  UNL1        0.0584
     58 H          -1.2457    3.6869   -3.4671 H       1  UNL1        0.0584
     59 H          -1.4785    4.1754   -1.3087 H       1  UNL1        0.2100
     60 H           1.1131   -5.3276    1.1376 H       1  UNL1        0.2100
     61 H           3.1695   -1.5179    2.5928 H       1  UNL1        0.2101
     62 H          -0.3960    0.2787   -3.4222 H       1  UNL1        0.2100
     63 H           1.7786   -0.6301   -1.5652 H       1  UNL1        0.0812
     64 H          -6.0251   -1.6244    0.6686 H       1  UNL1        0.2952
     65 H           2.1442    3.1084    3.4707 H       1  UNL1        0.0322
     66 H           2.2427    4.6421    2.5663 H       1  UNL1        0.0322
     67 H           2.5440    3.1035    1.7301 H       1  UNL1        0.0322
     68 H          -2.9797   -1.5885   -2.9285 H       1  UNL1        0.2220
     69 H          -0.4850    2.7970   -5.4147 H       1  UNL1        0.2095
     70 H           2.5107    1.5877   -2.2918 H       1  UNL1        0.0666
     71 H           5.6316    3.1575   -1.0391 H       1  UNL1        0.1437
     72 H           4.2506    3.3253   -2.0692 H       1  UNL1        0.1437
@<TRIPOS>BOND
     1     1     3    1
     2     1     7    1
     3     1    13    1
     4     1    15    2
     5     2    23    1
     6     2    26    1
     7     3    26    1
     8     4    28    1
     9     4    32    1
    10     5    24    1
    11     5    56    1
    12     6    27    1
    13     6    59    1
    14     7    34    1
    15     8    29    1
    16     8    60    1
    17     9    30    1
    18     9    61    1
    19    10    31    1
    20    10    62    1
    21    11    33    1
    22    11    64    1
    23    12    33    2
    24    13    68    1
    25    14    35    1
    26    14    69    1
    27    16    36    2
    28    17    39    2
    29    18    22    1
    30    18    36   am
    31    18    52    1
    32    19    32    1
    33    19    37   ar
    34    19    39   ar
    35    20    39   ar
    36    20    41   ar
    37    21    41    1
    38    21    71    1
    39    21    72    1
    40    22    23    1
    41    22    24    1
    42    22    42    1
    43    23    27    1
    44    23    43    1
    45    24    25    1
    46    24    44    1
    47    25    26    1
    48    25    45    1
    49    25    46    1
    50    26    33    1
    51    27    31    1
    52    27    47    1
    53    28    29    1
    54    28    34    1
    55    28    48    1
    56    29    30    1
    57    29    49    1
    58    30    32    1
    59    30    50    1
    60    31    35    1
    61    31    51    1
    62    32    53    1
    63    34    54    1
    64    34    55    1
    65    35    57    1
    66    35    58    1
    67    36    38    1
    68    37    40   ar
    69    37    63    1
    70    38    65    1
    71    38    66    1
    72    38    67    1
    73    40    41   ar
    74    40    70    1
