@<TRIPOS>MOLECULE
erythritol
 18 17 0 0 0
SMALL
GASTEIGER

@<TRIPOS>ATOM
      1 O           0.9400   -0.9642   -1.0741 O.3     1  UNL1       -0.3869
      2 O          -1.4427   -1.4335    0.4619 O.3     1  UNL1       -0.3869
      3 O           2.9552    0.4937    0.0834 O.3     1  UNL1       -0.3924
      4 O          -2.7196    0.9795   -0.1324 O.3     1  UNL1       -0.3924
      5 C           0.7569   -0.4595    0.2498 C.3     1  UNL1        0.1061
      6 C          -0.7316   -0.1953    0.5195 C.3     1  UNL1        0.1061
      7 C           1.5975    0.8091    0.3772 C.3     1  UNL1        0.0726
      8 C          -1.3557    0.7703   -0.4853 C.3     1  UNL1        0.0726
      9 H           1.1378   -1.2331    0.9267 H       1  UNL1        0.0643
     10 H          -0.8575    0.1899    1.5383 H       1  UNL1        0.0643
     11 H           1.3007    1.5822   -0.3363 H       1  UNL1        0.0584
     12 H           1.5472    1.2206    1.3894 H       1  UNL1        0.0584
     13 H          -0.8652    1.7461   -0.5000 H       1  UNL1        0.0584
     14 H          -1.3497    0.3529   -1.4968 H       1  UNL1        0.0584
     15 H           0.3845   -1.7578   -1.1607 H       1  UNL1        0.2100
     16 H          -2.3796   -1.2397    0.6368 H       1  UNL1        0.2100
     17 H           2.9804    0.1220   -0.8150 H       1  UNL1        0.2095
     18 H          -2.7347    1.3774    0.7548 H       1  UNL1        0.2095
@<TRIPOS>BOND
     1     1     5    1
     2     1    15    1
     3     2     6    1
     4     2    16    1
     5     3     7    1
     6     3    17    1
     7     4     8    1
     8     4    18    1
     9     5     6    1
    10     5     7    1
    11     5     9    1
    12     6     8    1
    13     6    10    1
    14     7    11    1
    15     7    12    1
    16     8    13    1
    17     8    14    1
