@<TRIPOS>MOLECULE
gdp_mannose
 64 67 0 0 0
SMALL
GASTEIGER

@<TRIPOS>ATOM
      1 P           0.9418   -0.0615    0.0532 P.3     1  UNL1        0.4835
      2 P           2.2586   -1.7836   -1.7583 P.3     1  UNL1        0.4857
      3 O          -1.5800    1.5652    1.2416 O.3     1  UNL1       -0.3456
      4 O           3.8917   -3.3778    0.2441 O.3     1  UNL1       -0.3400
      5 O           0.5959    4.0003    2.6200 O.3     1  UNL1       -0.3847
      6 O          -1.7043    4.3846    1.3155 O.3     1  UNL1       -0.3864
      7 O           0.7056    1.0219   -1.1744 O.3     1  UNL1       -0.2837
      8 O           2.2134   -3.3988   -1.4180 O.3     1  UNL1       -0.2536
      9 O           1.8030   -6.9700    0.7019 O.3     1  UNL1       -0.3864
     10 O           1.4512   -5.0168    2.5818 O.3     1  UNL1       -0.3865
     11 O           4.3676   -6.1578   -0.2402 O.3     1  UNL1       -0.3841
     12 O           0.9418   -1.6444   -0.6449 O.3     1  UNL1       -0.1860
     13 O           4.1846   -1.4729    2.1390 O.3     1  UNL1       -0.3924
     14 O          -0.7882   -0.0615    0.0532 O.3     1  UNL1       -0.3022
     15 O           1.0969   -1.8126   -2.9287 O.3     1  UNL1       -0.3022
     16 O           2.4901   -0.0615    0.0532 O.2     1  UNL1       -0.2269
     17 O           3.4372   -1.9082   -2.7547 O.2     1  UNL1       -0.2268
     18 O           1.6576   -2.9900    5.0028 O.2     1  UNL1       -0.2654
     19 N           0.1381    0.7482    2.8409 N.ar    1  UNL1       -0.2854
     20 N           1.8085   -0.1255    4.0718 N.ar    1  UNL1       -0.2286
     21 N          -1.1393   -1.3497    2.4616 N.ar    1  UNL1       -0.1963
     22 N          -0.1000   -3.1788    3.5538 N.ar    1  UNL1       -0.2934
     23 N          -1.8475   -3.5445    2.1189 N.pl3   1  UNL1       -0.3289
     24 C          -0.6956    3.6033    0.6221 C.3     1  UNL1        0.1135
     25 C           0.2270    3.0132    1.6752 C.3     1  UNL1        0.1285
     26 C          -1.3256    2.3759    0.0324 C.3     1  UNL1        0.1134
     27 C          -0.6318    1.8877    2.2909 C.3     1  UNL1        0.1667
     28 C           2.1100   -5.6114    0.3988 C.3     1  UNL1        0.1141
     29 C           2.5739   -4.9214    1.6909 C.3     1  UNL1        0.1119
     30 C           3.1761   -5.4833   -0.6846 C.3     1  UNL1        0.1346
     31 C           3.0323   -3.4735    1.4043 C.3     1  UNL1        0.1130
     32 C          -0.5478    1.7764   -1.2566 C.3     1  UNL1        0.0879
     33 C           3.4065   -3.9859   -0.9468 C.3     1  UNL1        0.1988
     34 C          -0.1538   -0.5934    3.0295 C.ar    1  UNL1        0.1712
     35 C           3.8923   -2.8288    2.5027 C.3     1  UNL1        0.0730
     36 C           1.3734    0.9373    3.4407 C.ar    1  UNL1        0.1005
     37 C           0.8598   -1.0684    3.8401 C.ar    1  UNL1        0.1721
     38 C           0.8750   -2.4629    4.2222 C.ar    1  UNL1        0.2803
     39 C          -1.0274   -2.6376    2.7077 C.ar    1  UNL1        0.1950
     40 H           1.1292    2.6124    1.1935 H       1  UNL1        0.0665
     41 H          -0.2020    4.2556   -0.0975 H       1  UNL1        0.0647
     42 H          -2.3327    2.6095   -0.3452 H       1  UNL1        0.0647
     43 H          -1.2077    2.2470    3.1515 H       1  UNL1        0.0866
     44 H           1.1766   -5.1591    0.0579 H       1  UNL1        0.0648
     45 H           3.3869   -5.4964    2.1544 H       1  UNL1        0.0647
     46 H           2.8405   -5.9936   -1.6006 H       1  UNL1        0.0671
     47 H           2.1578   -2.8354    1.2401 H       1  UNL1        0.0647
     48 H          -0.3604    2.6051   -1.9480 H       1  UNL1        0.0592
     49 H          -1.2489    1.1254   -1.8019 H       1  UNL1        0.0592
     50 H           4.2048   -3.8901   -1.6897 H       1  UNL1        0.0943
     51 H           3.4223   -2.8131    3.4799 H       1  UNL1        0.0584
     52 H           4.8564   -3.3378    2.5973 H       1  UNL1        0.0584
     53 H          -0.1494    4.6334    2.6603 H       1  UNL1        0.2101
     54 H          -2.4442    3.7835    1.5452 H       1  UNL1        0.2100
     55 H           1.9138    1.8761    3.3979 H       1  UNL1        0.1030
     56 H           2.6462   -7.4559    0.6438 H       1  UNL1        0.2100
     57 H           1.0094   -5.8564    2.3193 H       1  UNL1        0.2100
     58 H           4.9189   -5.5038    0.2338 H       1  UNL1        0.2101
     59 H           4.3297   -1.4558    1.1739 H       1  UNL1        0.2095
     60 H           0.0635   -4.1741    3.5797 H       1  UNL1        0.1716
     61 H          -1.0770   -0.8579   -0.4363 H       1  UNL1        0.2220
     62 H           1.1427   -1.0006   -3.4627 H       1  UNL1        0.2220
     63 H          -2.7074   -3.1427    1.7363 H       1  UNL1        0.1451
     64 H          -1.9976   -4.4183    2.5973 H       1  UNL1        0.1451
@<TRIPOS>BOND
     1     1     7    1
     2     1    12    1
     3     1    14    1
     4     1    16    2
     5     2     8    1
     6     2    12    1
     7     2    15    1
     8     2    17    2
     9     3    26    1
    10     3    27    1
    11     4    31    1
    12     4    33    1
    13    25     5    1
    14     5    53    1
    15    24     6    1
    16     6    54    1
    17     7    32    1
    18    33     8    1
    19    28     9    1
    20     9    56    1
    21    29    10    1
    22    10    57    1
    23    30    11    1
    24    11    58    1
    25    13    35    1
    26    13    59    1
    27    14    61    1
    28    15    62    1
    29    18    38    2
    30    19    34   ar
    31    19    36   ar
    32    20    36   ar
    33    20    37   ar
    34    21    34   ar
    35    21    39   ar
    36    22    38   ar
    37    22    39   ar
    38    22    60    1
    39    23    39    1
    40    23    63    1
    41    23    64    1
    42    24    25    1
    43    24    26    1
    44    24    41    1
    45    25    27    1
    46    25    40    1
    47    26    32    1
    48    26    42    1
    49    28    29    1
    50    28    30    1
    51    28    44    1
    52    29    31    1
    53    29    45    1
    54    30    33    1
    55    30    46    1
    56    31    35    1
    57    31    47    1
    58    32    48    1
    59    32    49    1
    60    33    50    1
    61    34    37   ar
    62    35    51    1
    63    35    52    1
    64    36    55    1
    65    37    38   ar
    66    27    43    1
    67    27    19    1
