@<TRIPOS>MOLECULE
gdp_fucose
 63 66 0 0 0
SMALL
GASTEIGER

@<TRIPOS>ATOM
      1 P           1.0688    0.0669    0.0282 P.3     1  UNL1        0.4835
      2 P           3.5762    1.0409   -0.8354 P.3     1  UNL1        0.4857
      3 O           0.5373   -0.8601   -4.8880 O.3     1  UNL1       -0.3456
      4 O           5.2598    3.2402    1.8183 O.3     1  UNL1       -0.3426
      5 O           2.8824   -3.3899   -5.9253 O.3     1  UNL1       -0.3847
      6 O           1.2158   -3.9284   -4.0616 O.3     1  UNL1       -0.3864
      7 O           1.3428   -1.0317   -1.2247 O.3     1  UNL1       -0.2837
      8 O           4.1292    2.0972    0.2528 O.3     1  UNL1       -0.2536
      9 O           6.4212   -0.2084    3.7325 O.3     1  UNL1       -0.3864
     10 O           5.3073    2.2165    4.4601 O.3     1  UNL1       -0.3866
     11 O           5.7700   -0.3285    1.0229 O.3     1  UNL1       -0.3841
     12 O           2.6849    0.4398    0.5201 O.3     1  UNL1       -0.1860
     13 O           1.0538   -1.2877    1.1042 O.3     1  UNL1       -0.3022
     14 O           4.3402   -0.3830   -0.7870 O.3     1  UNL1       -0.3022
     15 O           1.0823    1.2792   -0.9349 O.2     1  UNL1       -0.2269
     16 O           4.3738    1.5788   -2.0485 O.2     1  UNL1       -0.2268
     17 O           3.8647    2.7252   -9.3447 O.2     1  UNL1       -0.2654
     18 N           1.7490   -0.5050   -6.9041 N.ar    1  UNL1       -0.2854
     19 N           1.8518    0.4603   -8.9281 N.ar    1  UNL1       -0.2286
     20 N           3.4140    0.8074   -5.7220 N.ar    1  UNL1       -0.1963
     21 N           4.4094    2.4301   -7.1486 N.ar    1  UNL1       -0.2934
     22 N           5.0819    2.2048   -4.9415 N.pl3   1  UNL1       -0.3289
     23 C           2.4745   -2.2284   -5.1919 C.3     1  UNL1        0.1285
     24 C           1.8142   -2.6255   -3.8739 C.3     1  UNL1        0.1135
     25 C           1.3513   -1.4794   -5.9047 C.3     1  UNL1        0.1667
     26 C           0.7470   -1.5670   -3.6346 C.3     1  UNL1        0.1134
     27 C           6.5265    0.9236    2.8583 C.3     1  UNL1        0.1140
     28 C           6.4767    2.2375    3.6243 C.3     1  UNL1        0.1095
     29 C           1.0707   -0.5388   -2.5617 C.3     1  UNL1        0.0879
     30 C           5.4126    0.8045    1.8344 C.3     1  UNL1        0.1346
     31 C           6.4392    3.3880    2.6092 C.3     1  UNL1        0.0873
     32 C           5.3137    2.0720    0.9778 C.3     1  UNL1        0.1987
     33 C           2.6781    0.4955   -6.8123 C.ar    1  UNL1        0.1712
     34 C           6.4085    4.7531    3.2804 C.3     1  UNL1       -0.0361
     35 C           1.2825   -0.4809   -8.1994 C.ar    1  UNL1        0.1005
     36 C           2.7304    1.0650   -8.0655 C.ar    1  UNL1        0.1721
     37 C           3.6816    2.1360   -8.2942 C.ar    1  UNL1        0.2803
     38 C           4.2764    1.7789   -5.9325 C.ar    1  UNL1        0.1950
     39 H           3.3524   -1.6064   -5.0027 H       1  UNL1        0.0665
     40 H           2.5338   -2.7184   -3.0565 H       1  UNL1        0.0647
     41 H           0.7022   -2.1974   -6.4216 H       1  UNL1        0.0866
     42 H          -0.2116   -2.0314   -3.3773 H       1  UNL1        0.0647
     43 H           7.4839    0.8299    2.3343 H       1  UNL1        0.0648
     44 H           7.3480    2.3112    4.2806 H       1  UNL1        0.0646
     45 H           0.1818    0.1075   -2.5348 H       1  UNL1        0.0592
     46 H           1.9176    0.0737   -2.8896 H       1  UNL1        0.0592
     47 H           4.4517    0.5869    2.3232 H       1  UNL1        0.0671
     48 H           7.3079    3.3535    1.9415 H       1  UNL1        0.0621
     49 H           6.1463    2.1622    0.2771 H       1  UNL1        0.0943
     50 H           2.4491   -4.1484   -5.4781 H       1  UNL1        0.2101
     51 H           0.2819   -3.8189   -4.3173 H       1  UNL1        0.2100
     52 H           7.3224    4.9117    3.8608 H       1  UNL1        0.0255
     53 H           6.3330    5.5459    2.5281 H       1  UNL1        0.0255
     54 H           5.5451    4.8685    3.9434 H       1  UNL1        0.0255
     55 H           0.5336   -1.1769   -8.5557 H       1  UNL1        0.1030
     56 H           5.7326    0.0276    4.3888 H       1  UNL1        0.2100
     57 H           4.6153    2.7430    4.0122 H       1  UNL1        0.2100
     58 H           6.1109   -1.0077    1.6422 H       1  UNL1        0.2101
     59 H           5.1236    3.1358   -7.2573 H       1  UNL1        0.1716
     60 H           1.6043   -1.0750    1.8808 H       1  UNL1        0.2220
     61 H           5.2201   -0.3697   -0.3596 H       1  UNL1        0.2220
     62 H           4.8076    1.8723   -4.0116 H       1  UNL1        0.1451
     63 H           5.3162    3.1914   -4.9175 H       1  UNL1        0.1451
@<TRIPOS>BOND
     1     1     7    1
     2     1    12    1
     3     1    13    1
     4     1    15    2
     5     2     8    1
     6     2    12    1
     7     2    14    1
     8     2    16    2
     9     3    25    1
    10     3    26    1
    11     4    31    1
    12     4    32    1
    13    23     5    1
    14     5    50    1
    15    24     6    1
    16     6    51    1
    17     7    29    1
    18     8    32    1
    19    27     9    1
    20     9    56    1
    21    28    10    1
    22    10    57    1
    23    30    11    1
    24    11    58    1
    25    13    60    1
    26    14    61    1
    27    17    37    2
    28    18    33   ar
    29    18    35   ar
    30    19    35   ar
    31    19    36   ar
    32    20    33   ar
    33    20    38   ar
    34    21    37   ar
    35    21    38   ar
    36    21    59    1
    37    22    38    1
    38    22    62    1
    39    22    63    1
    40    23    24    1
    41    23    25    1
    42    23    39    1
    43    24    26    1
    44    24    40    1
    45    26    29    1
    46    26    42    1
    47    27    28    1
    48    27    30    1
    49    27    43    1
    50    28    31    1
    51    28    44    1
    52    29    45    1
    53    29    46    1
    54    30    32    1
    55    30    47    1
    56    31    34    1
    57    31    48    1
    58    32    49    1
    59    33    36   ar
    60    34    52    1
    61    34    53    1
    62    34    54    1
    63    35    55    1
    64    36    37   ar
    65    25    41    1
    66    25    18    1
