@<TRIPOS>MOLECULE
glucono_delta_lactone
 22 22 0 0 0
SMALL
GASTEIGER

@<TRIPOS>ATOM
      1 O          -0.3286    1.4380   -0.1234 O.3     1  UNL1       -0.4545
      2 O          -1.4640   -2.0541   -0.6056 O.3     1  UNL1       -0.3854
      3 O           1.1281   -2.4030    0.5076 O.3     1  UNL1       -0.3860
      4 O           2.8868   -0.1633    0.0170 O.3     1  UNL1       -0.3783
      5 O          -2.7611    0.7979    1.1072 O.3     1  UNL1       -0.3913
      6 O           1.7659    2.2710   -0.1920 O.2     1  UNL1       -0.2478
      7 C          -0.7551   -0.9900    0.0233 C.3     1  UNL1        0.1229
      8 C           0.7347   -1.2176   -0.1865 C.3     1  UNL1        0.1207
      9 C          -1.1477    0.3466   -0.5965 C.3     1  UNL1        0.1542
     10 C           1.5191   -0.0528    0.3875 C.3     1  UNL1        0.1800
     11 C          -2.5970    0.7191   -0.2969 C.3     1  UNL1        0.0838
     12 C           1.0188    1.3083   -0.0417 C.2     1  UNL1        0.3391
     13 H          -0.9740   -1.0294    1.0974 H       1  UNL1        0.0658
     14 H           0.9695   -1.3777   -1.2458 H       1  UNL1        0.0652
     15 H          -1.0385    0.3040   -1.6879 H       1  UNL1        0.0784
     16 H           1.4901   -0.0770    1.4833 H       1  UNL1        0.0738
     17 H          -3.3025   -0.0156   -0.6943 H       1  UNL1        0.0595
     18 H          -2.8445    1.6992   -0.7180 H       1  UNL1        0.0595
     19 H          -2.3943   -1.9932   -0.3315 H       1  UNL1        0.2101
     20 H           0.5907   -3.1348    0.1591 H       1  UNL1        0.2100
     21 H           2.9337   -0.1865   -0.9541 H       1  UNL1        0.2106
     22 H          -2.1315    1.4599    1.4408 H       1  UNL1        0.2096
@<TRIPOS>BOND
     1     1     9    1
     2     1    12    1
     3     2     7    1
     4     2    19    1
     5     3     8    1
     6     3    20    1
     7     4    10    1
     8     4    21    1
     9     5    11    1
    10     5    22    1
    11     6    12    2
    12     7     8    1
    13     7     9    1
    14     7    13    1
    15     8    10    1
    16     8    14    1
    17     9    11    1
    18     9    15    1
    19    10    12    1
    20    10    16    1
    21    11    17    1
    22    11    18    1
