@<TRIPOS>MOLECULE
gluconic_acid
 25 24 0 0 0
SMALL
GASTEIGER

@<TRIPOS>ATOM
      1 O           1.5938    1.8140   -1.0018 O.3     1  UNL1       -0.3865
      2 O          -1.1620    1.6756   -0.9001 O.3     1  UNL1       -0.3860
      3 O           3.1160    0.4587    0.9957 O.3     1  UNL1       -0.3869
      4 O          -1.4072    0.5190    1.7040 O.3     1  UNL1       -0.3783
      5 O           3.0744   -2.1516   -0.1192 O.3     1  UNL1       -0.3924
      6 O          -2.4828   -1.4784   -1.0909 O.3     1  UNL1       -0.4788
      7 O          -3.6499   -0.3040    0.4608 O.2     1  UNL1       -0.2480
      8 C           0.9727    1.0546    0.0305 C.3     1  UNL1        0.1119
      9 C          -0.3880    0.5432   -0.4935 C.3     1  UNL1        0.1197
     10 C           1.8996   -0.0924    0.4916 C.3     1  UNL1        0.1065
     11 C          -1.2197   -0.2558    0.5278 C.3     1  UNL1        0.1798
     12 C           2.2315   -1.1138   -0.5998 C.3     1  UNL1        0.0727
     13 C          -2.5784   -0.6692   -0.0051 C.2     1  UNL1        0.3363
     14 H           0.8136    1.7567    0.8579 H       1  UNL1        0.0647
     15 H          -0.2450   -0.0476   -1.4050 H       1  UNL1        0.0652
     16 H           1.4482   -0.6145    1.3414 H       1  UNL1        0.0643
     17 H          -0.6954   -1.1719    0.8199 H       1  UNL1        0.0738
     18 H           2.7638   -0.6340   -1.4275 H       1  UNL1        0.0584
     19 H           1.3309   -1.5857   -1.0014 H       1  UNL1        0.0584
     20 H           2.3944    2.2197   -0.6286 H       1  UNL1        0.2100
     21 H          -0.6354    2.1699   -1.5515 H       1  UNL1        0.2100
     22 H           3.6191    0.8151    0.2441 H       1  UNL1        0.2100
     23 H          -1.8178   -0.0565    2.3719 H       1  UNL1        0.2106
     24 H           2.6156   -2.5785    0.6243 H       1  UNL1        0.2095
     25 H          -3.3649   -1.7305   -1.4381 H       1  UNL1        0.2951
@<TRIPOS>BOND
     1     1     8    1
     2     1    20    1
     3     2     9    1
     4     2    21    1
     5     3    10    1
     6     3    22    1
     7     4    11    1
     8     4    23    1
     9     5    12    1
    10     5    24    1
    11     6    13    1
    12     6    25    1
    13     7    13    2
    14     8     9    1
    15     8    10    1
    16     8    14    1
    17     9    11    1
    18     9    15    1
    19    10    12    1
    20    10    16    1
    21    11    13    1
    22    11    17    1
    23    12    18    1
    24    12    19    1
