@<TRIPOS>MOLECULE
glycerol
 14 13 0 0 0
SMALL
GASTEIGER

@<TRIPOS>ATOM
      1 O           0.0235   -1.3493    0.2499 O.3     1  UNL1       -0.3873
      2 O           2.3988   -0.0044   -0.2369 O.3     1  UNL1       -0.3924
      3 O          -2.4131   -0.0097   -0.2384 O.3     1  UNL1       -0.3924
      4 C           0.0001   -0.0124   -0.2555 C.3     1  UNL1        0.1012
      5 C           1.2544    0.6980    0.2362 C.3     1  UNL1        0.0723
      6 C          -1.2637    0.6778    0.2447 C.3     1  UNL1        0.0723
      7 H          -0.0033   -0.0966   -1.3473 H       1  UNL1        0.0639
      8 H           1.3076    0.7187    1.3298 H       1  UNL1        0.0583
      9 H           1.3018    1.7246   -0.1387 H       1  UNL1        0.0583
     10 H          -1.3070    1.7136   -0.1066 H       1  UNL1        0.0583
     11 H          -1.3100    0.6670    1.3389 H       1  UNL1        0.0583
     12 H           0.0214   -1.3033    1.2213 H       1  UNL1        0.2100
     13 H           2.3408   -0.9155    0.0984 H       1  UNL1        0.2095
     14 H          -3.1917    0.4634    0.1016 H       1  UNL1        0.2095
@<TRIPOS>BOND
     1     1     4    1
     2     1    12    1
     3     2     5    1
     4     2    13    1
     5     3     6    1
     6     3    14    1
     7     4     5    1
     8     4     6    1
     9     4     7    1
    10     5     8    1
    11     5     9    1
    12     6    10    1
    13     6    11    1
