@<TRIPOS>MOLECULE
mannitol
 26 25 0 0 0
SMALL
GASTEIGER

@<TRIPOS>ATOM
      1 O           0.5166    1.3302   -1.1366 O.3     1  UNL1       -0.3865
      2 O          -0.5157   -1.3358   -1.1294 O.3     1  UNL1       -0.3865
      3 O           2.0667   -1.0186    1.2058 O.3     1  UNL1       -0.3869
      4 O          -2.0654    1.0310    1.1961 O.3     1  UNL1       -0.3869
      5 O           4.3613   -0.1186   -0.0185 O.3     1  UNL1       -0.3924
      6 O          -4.3721    0.1020   -0.0138 O.3     1  UNL1       -0.3924
      7 C           0.6071    0.4748    0.0024 C.3     1  UNL1        0.1114
      8 C          -0.6047   -0.4724    0.0035 C.3     1  UNL1        0.1114
      9 C           1.9649   -0.2560   -0.0037 C.3     1  UNL1        0.1065
     10 C          -1.9614    0.2601   -0.0078 C.3     1  UNL1        0.1065
     11 C           3.1762    0.6728   -0.0496 C.3     1  UNL1        0.0727
     12 C          -3.1735   -0.6693   -0.0484 C.3     1  UNL1        0.0727
     13 H           0.5532    1.1123    0.8929 H       1  UNL1        0.0647
     14 H          -0.5591   -1.1051    0.8973 H       1  UNL1        0.0647
     15 H           2.0388   -0.9551   -0.8453 H       1  UNL1        0.0643
     16 H          -2.0253    0.9595   -0.8487 H       1  UNL1        0.0643
     17 H           3.2010    1.3426    0.8162 H       1  UNL1        0.0584
     18 H           3.1900    1.2728   -0.9637 H       1  UNL1        0.0584
     19 H          -3.1910   -1.3300    0.8242 H       1  UNL1        0.0584
     20 H          -3.1844   -1.2845   -0.9531 H       1  UNL1        0.0584
     21 H           0.6781    0.7909   -1.9291 H       1  UNL1        0.2100
     22 H          -0.6726   -0.8010   -1.9259 H       1  UNL1        0.2100
     23 H           1.4878   -1.7939    1.1145 H       1  UNL1        0.2100
     24 H          -2.0136    0.4178    1.9492 H       1  UNL1        0.2100
     25 H           4.3348   -0.6503    0.7954 H       1  UNL1        0.2095
     26 H          -4.3698    0.6793   -0.7963 H       1  UNL1        0.2095
@<TRIPOS>BOND
     1     1     7    1
     2     1    21    1
     3     2     8    1
     4     2    22    1
     5     3     9    1
     6     3    23    1
     7     4    10    1
     8     4    24    1
     9     5    11    1
    10     5    25    1
    11     6    12    1
    12     6    26    1
    13     7     8    1
    14     7     9    1
    15     7    13    1
    16     8    10    1
    17     8    14    1
    18     9    11    1
    19     9    15    1
    20    10    12    1
    21    10    16    1
    22    11    17    1
    23    11    18    1
    24    12    19    1
    25    12    20    1
