@<TRIPOS>MOLECULE
myo_inositol
 24 24 0 0 0
SMALL
GASTEIGER

@<TRIPOS>ATOM
      1 O          -2.3946   -1.3476    0.3643 O.3     1  UNL1       -0.3865
      2 O          -0.0544   -2.5683   -0.7344 O.3     1  UNL1       -0.3865
      3 O          -2.3803    1.5431    0.1230 O.3     1  UNL1       -0.3865
      4 O           2.3786   -1.3726    0.3696 O.3     1  UNL1       -0.3865
      5 O           0.0209    1.8874   -1.2253 O.3     1  UNL1       -0.3865
      6 O           2.4316    1.4546    0.1107 O.3     1  UNL1       -0.3865
      7 C          -1.2894   -0.6036   -0.1590 C.3     1  UNL1        0.1118
      8 C          -0.0186   -1.4160    0.1136 C.3     1  UNL1        0.1118
      9 C          -1.2490    0.7696    0.5194 C.3     1  UNL1        0.1118
     10 C           1.2723   -0.6358   -0.1617 C.3     1  UNL1        0.1118
     11 C           0.0175    1.5514    0.1653 C.3     1  UNL1        0.1118
     12 C           1.2654    0.7377    0.5146 C.3     1  UNL1        0.1118
     13 H          -1.4703   -0.4973   -1.2355 H       1  UNL1        0.0647
     14 H          -0.0269   -1.7933    1.1442 H       1  UNL1        0.0647
     15 H          -1.3142    0.6469    1.6077 H       1  UNL1        0.0647
     16 H           1.4533   -0.5365   -1.2389 H       1  UNL1        0.0647
     17 H           0.0337    2.5085    0.6997 H       1  UNL1        0.0647
     18 H           1.3347    0.6075    1.6020 H       1  UNL1        0.0647
     19 H          -2.3969   -2.2140   -0.0777 H       1  UNL1        0.2100
     20 H           0.6840   -3.1461   -0.4785 H       1  UNL1        0.2100
     21 H          -3.1752    1.0241    0.3343 H       1  UNL1        0.2100
     22 H           2.4522   -2.1991   -0.1364 H       1  UNL1        0.2100
     23 H          -0.8052    2.3664   -1.4094 H       1  UNL1        0.2100
     24 H           2.4137    2.3178    0.5580 H       1  UNL1        0.2100
@<TRIPOS>BOND
     1     1     7    1
     2     1    19    1
     3     2     8    1
     4     2    20    1
     5     3     9    1
     6     3    21    1
     7     4    10    1
     8     4    22    1
     9     5    11    1
    10     5    23    1
    11     6    12    1
    12     6    24    1
    13     7     8    1
    14     7     9    1
    15     7    13    1
    16     8    10    1
    17     8    14    1
    18     9    11    1
    19     9    15    1
    20    10    12    1
    21    10    16    1
    22    11    12    1
    23    11    17    1
    24    12    18    1
