@<TRIPOS>MOLECULE
sorbitol
 26 25 0 0 0
SMALL
GASTEIGER

@<TRIPOS>ATOM
      1 O          -1.1862   -1.7940   -1.0345 O.3     1  UNL1       -0.3865
      2 O           1.5483   -1.5607   -0.8896 O.3     1  UNL1       -0.3865
      3 O          -2.8512   -0.5745    0.8131 O.3     1  UNL1       -0.3869
      4 O           1.7111   -0.5685    1.7691 O.3     1  UNL1       -0.3869
      5 O          -2.8753    2.0270   -0.0841 O.3     1  UNL1       -0.3924
      6 O           2.7166    1.6744   -0.9156 O.3     1  UNL1       -0.3924
      7 C          -0.6183   -1.0290    0.0283 C.3     1  UNL1        0.1114
      8 C           0.7399   -0.4759   -0.4352 C.3     1  UNL1        0.1114
      9 C          -1.6133    0.0623    0.4716 C.3     1  UNL1        0.1065
     10 C           1.4925    0.3096    0.6577 C.3     1  UNL1        0.1065
     11 C          -1.9264    1.0995   -0.6047 C.3     1  UNL1        0.0727
     12 C           2.8621    0.8299    0.2238 C.3     1  UNL1        0.0727
     13 H          -0.4776   -1.7454    0.8459 H       1  UNL1        0.0647
     14 H           0.5963    0.1596   -1.3151 H       1  UNL1        0.0647
     15 H          -1.2666    0.5674    1.3794 H       1  UNL1        0.0643
     16 H           0.8805    1.1525    0.9952 H       1  UNL1        0.0643
     17 H          -2.3727    0.6461   -1.4949 H       1  UNL1        0.0584
     18 H          -1.0397    1.6660   -0.8987 H       1  UNL1        0.0584
     19 H           3.5413    0.0103   -0.0327 H       1  UNL1        0.0584
     20 H           3.3402    1.3994    1.0282 H       1  UNL1        0.0584
     21 H          -1.2043   -1.2399   -1.8327 H       1  UNL1        0.2100
     22 H           1.7241   -2.1366   -0.1258 H       1  UNL1        0.2100
     23 H          -2.6655   -1.2098    1.5255 H       1  UNL1        0.2100
     24 H           2.1330   -0.0481    2.4740 H       1  UNL1        0.2100
     25 H          -3.6626    1.5208    0.1800 H       1  UNL1        0.2095
     26 H           2.1249    2.4038   -0.6637 H       1  UNL1        0.2095
@<TRIPOS>BOND
     1     1     7    1
     2     1    21    1
     3     2     8    1
     4     2    22    1
     5     3     9    1
     6     3    23    1
     7     4    10    1
     8     4    24    1
     9     5    11    1
    10     5    25    1
    11     6    12    1
    12     6    26    1
    13     7     8    1
    14     7     9    1
    15     7    13    1
    16     8    10    1
    17     8    14    1
    18     9    11    1
    19     9    15    1
    20    10    12    1
    21    10    16    1
    22    11    17    1
    23    11    18    1
    24    12    19    1
    25    12    20    1
