@<TRIPOS>MOLECULE
udp_glcnac
 66 68 0 0 0
SMALL
GASTEIGER

@<TRIPOS>ATOM
      1 P          -3.5504    1.0680   -1.0356 P.3     1  UNL1        0.4856
      2 P          -1.5007    2.5186   -2.5689 P.3     1  UNL1        0.4835
      3 O           1.4515    1.1331    0.4261 O.3     1  UNL1       -0.3456
      4 O          -3.3971   -1.8145    0.6624 O.3     1  UNL1       -0.3407
      5 O          -2.4738    0.1728   -0.2335 O.3     1  UNL1       -0.2544
      6 O           0.3582   -1.8129    2.3767 O.3     1  UNL1       -0.3871
      7 O           2.9375    3.5035    1.5043 O.3     1  UNL1       -0.3864
      8 O          -0.2271   -3.6403    0.2283 O.3     1  UNL1       -0.3865
      9 O           4.9310    2.0003    0.4068 O.3     1  UNL1       -0.3847
     10 O          -0.4580    1.9857   -1.4527 O.3     1  UNL1       -0.2837
     11 O          -4.3014   -3.7112   -1.0808 O.3     1  UNL1       -0.3924
     12 O          -2.7746    1.5433   -2.3718 O.3     1  UNL1       -0.1860
     13 O          -4.6320    0.0023   -1.5942 O.3     1  UNL1       -0.3022
     14 O          -4.1441    2.1915   -0.2361 O.2     1  UNL1       -0.2268
     15 O           4.7274   -1.1898    1.2993 O.2     1  UNL1       -0.2464
     16 O          -0.8665    2.0103   -3.9676 O.3     1  UNL1       -0.3022
     17 O          -2.5220    1.1379    4.0631 O.2     1  UNL1       -0.2761
     18 O          -1.8213    3.9836   -2.5138 O.2     1  UNL1       -0.2269
     19 O           3.4544   -4.0503   -2.0832 O.2     1  UNL1       -0.2677
     20 N           3.0188   -0.5062   -0.1403 N.ar    1  UNL1       -0.2715
     21 N          -1.1478    0.6631    2.2449 N.am    1  UNL1       -0.3053
     22 N           4.0926   -2.6126   -0.3863 N.ar    1  UNL1       -0.2749
     23 C          -1.6901   -0.6364    1.9203 C.3     1  UNL1        0.1028
     24 C          -0.6112   -1.5644    1.3565 C.3     1  UNL1        0.1065
     25 C           2.7687    3.0827    0.1508 C.3     1  UNL1        0.1135
     26 C          -1.2257   -2.9002    0.9264 C.3     1  UNL1        0.1112
     27 C           3.6322    1.8721   -0.1342 C.3     1  UNL1        0.1286
     28 C           1.3638    2.5131    0.0084 C.3     1  UNL1        0.1134
     29 C           2.8350    0.7557    0.5180 C.3     1  UNL1        0.1679
     30 C          -2.4526   -2.6864    0.0321 C.3     1  UNL1        0.1130
     31 C          -2.8698   -0.5171    0.9504 C.3     1  UNL1        0.1912
     32 C           0.8441    2.5435   -1.4227 C.3     1  UNL1        0.0879
     33 C          -3.1810   -3.9947   -0.2632 C.3     1  UNL1        0.0730
     34 C           3.9977   -1.4125    0.3308 C.ar    1  UNL1        0.3314
     35 C           2.2348   -0.8361   -1.2396 C.ar    1  UNL1        0.0171
     36 C          -1.6141    1.4394    3.2928 C.2     1  UNL1        0.2104
     37 C           2.3367   -1.9840   -1.9128 C.ar    1  UNL1        0.0192
     38 C          -0.8578    2.7341    3.4247 C.3     1  UNL1        0.0122
     39 C           3.3350   -2.9849   -1.4858 C.ar    1  UNL1        0.2539
     40 H          -2.0621   -1.0792    2.8548 H       1  UNL1        0.0575
     41 H          -0.0845   -1.0972    0.5193 H       1  UNL1        0.0640
     42 H           2.9864    3.9360   -0.4976 H       1  UNL1        0.0647
     43 H          -1.4992   -3.4807    1.8158 H       1  UNL1        0.0646
     44 H           3.7208    1.7279   -1.2178 H       1  UNL1        0.0665
     45 H           0.6440    3.0015    0.6739 H       1  UNL1        0.0647
     46 H           3.0877    0.6550    1.5805 H       1  UNL1        0.0867
     47 H          -2.1597   -2.2453   -0.9301 H       1  UNL1        0.0647
     48 H          -3.6717    0.0541    1.4317 H       1  UNL1        0.0935
     49 H           0.8075    3.5802   -1.7754 H       1  UNL1        0.0592
     50 H           1.4741    1.9778   -2.1132 H       1  UNL1        0.0592
     51 H          -3.5494   -4.4526    0.6609 H       1  UNL1        0.0584
     52 H          -2.5317   -4.7043   -0.7850 H       1  UNL1        0.0584
     53 H          -0.4281    1.0416    1.6366 H       1  UNL1        0.1492
     54 H          -0.0951   -2.2264    3.1310 H       1  UNL1        0.2100
     55 H           2.3329    4.2503    1.6542 H       1  UNL1        0.2100
     56 H          -0.0189   -3.1622   -0.5922 H       1  UNL1        0.2100
     57 H           5.3938    1.1583    0.2577 H       1  UNL1        0.2101
     58 H           1.4950   -0.1207   -1.5663 H       1  UNL1        0.0813
     59 H          -4.7514   -4.5555   -1.2540 H       1  UNL1        0.2095
     60 H           4.7897   -3.2787   -0.0652 H       1  UNL1        0.1734
     61 H           1.7057   -2.2079   -2.7641 H       1  UNL1        0.0686
     62 H           0.2199    2.5498    3.3928 H       1  UNL1        0.0322
     63 H          -1.1045    3.2098    4.3779 H       1  UNL1        0.0322
     64 H          -1.1379    3.4033    2.6064 H       1  UNL1        0.0322
     65 H          -5.4610    0.3358   -1.9988 H       1  UNL1        0.2220
     66 H          -0.6562    1.0581   -4.0739 H       1  UNL1        0.2220
@<TRIPOS>BOND
     1     1     5    1
     2     1    12    1
     3     1    13    1
     4     1    14    2
     5     2    10    1
     6     2    12    1
     7     2    16    1
     8     2    18    2
     9     3    28    1
    10     3    29    1
    11     4    30    1
    12     4    31    1
    13     5    31    1
    14     6    24    1
    15     6    54    1
    16     7    25    1
    17     7    55    1
    18     8    26    1
    19     8    56    1
    20     9    27    1
    21     9    57    1
    22    10    32    1
    23    11    33    1
    24    11    59    1
    25    13    65    1
    26    15    34    2
    27    16    66    1
    28    17    36    2
    29    19    39    2
    30    20    29    1
    31    20    34   ar
    32    20    35   ar
    33    21    23    1
    34    21    36   am
    35    21    53    1
    36    22    34   ar
    37    22    39   ar
    38    22    60    1
    39    23    24    1
    40    23    31    1
    41    23    40    1
    42    24    26    1
    43    24    41    1
    44    25    27    1
    45    25    28    1
    46    25    42    1
    47    26    30    1
    48    26    43    1
    49    27    29    1
    50    27    44    1
    51    28    32    1
    52    28    45    1
    53    29    46    1
    54    30    33    1
    55    30    47    1
    56    31    48    1
    57    32    49    1
    58    32    50    1
    59    33    51    1
    60    33    52    1
    61    35    37   ar
    62    35    58    1
    63    36    38    1
    64    37    39   ar
    65    37    61    1
    66    38    62    1
    67    38    63    1
    68    38    64    1
