@<TRIPOS>MOLECULE
udp_galactose
 60 62 0 0 0
SMALL
GASTEIGER

@<TRIPOS>ATOM
      1 P          -2.0310    1.9383   -1.9323 P.3     1  UNL1        0.4857
      2 P          -1.1620    3.2829    0.5364 P.3     1  UNL1        0.4835
      3 O           3.0287    0.8833    1.6173 O.3     1  UNL1       -0.3456
      4 O          -1.9892   -0.4134    0.8185 O.3     1  UNL1       -0.3400
      5 O           4.1616    3.1260   -0.0188 O.3     1  UNL1       -0.3864
      6 O           3.8005    1.1593   -1.8737 O.3     1  UNL1       -0.3847
      7 O          -2.6955    0.6933   -1.1506 O.3     1  UNL1       -0.2536
      8 O           0.3309    3.2899    1.1594 O.3     1  UNL1       -0.2837
      9 O          -3.7736   -3.4742   -1.3497 O.3     1  UNL1       -0.3864
     10 O          -2.8173   -3.1539    1.2353 O.3     1  UNL1       -0.3865
     11 O          -2.0994   -1.5425   -2.6696 O.3     1  UNL1       -0.3841
     12 O          -0.9575    2.5513   -0.8904 O.3     1  UNL1       -0.1860
     13 O          -3.3844    0.5680    3.2173 O.3     1  UNL1       -0.3924
     14 O           4.9849   -1.7644   -0.8426 O.2     1  UNL1       -0.2464
     15 O          -1.0995    1.2581   -3.0667 O.3     1  UNL1       -0.3022
     16 O          -1.4174    4.8253    0.1209 O.3     1  UNL1       -0.3022
     17 O          -3.0178    2.9393   -2.4595 O.2     1  UNL1       -0.2268
     18 O          -2.2263    2.6754    1.4029 O.2     1  UNL1       -0.2269
     19 O           1.7553   -4.8976    0.1561 O.2     1  UNL1       -0.2677
     20 N           3.0837   -1.0591    0.3179 N.ar    1  UNL1       -0.2715
     21 N           3.3751   -3.3230   -0.3450 N.ar    1  UNL1       -0.2749
     22 C           2.8704    2.5212   -0.0867 C.3     1  UNL1        0.1135
     23 C           2.9634    1.1564   -0.7356 C.3     1  UNL1        0.1286
     24 C           2.4408    2.1716    1.3316 C.3     1  UNL1        0.1134
     25 C           3.5172    0.3068    0.3952 C.3     1  UNL1        0.1679
     26 C          -3.5644   -2.1603   -0.8398 C.3     1  UNL1        0.1141
     27 C          -3.6904   -2.1637    0.6863 C.3     1  UNL1        0.1119
     28 C          -2.1755   -1.6741   -1.2539 C.3     1  UNL1        0.1346
     29 C          -3.3042   -0.7919    1.2546 C.3     1  UNL1        0.1130
     30 C          -1.8594   -0.3252   -0.6030 C.3     1  UNL1        0.1988
     31 C           0.9312    2.0500    1.4907 C.3     1  UNL1        0.0879
     32 C          -3.2965   -0.7759    2.7794 C.3     1  UNL1        0.0730
     33 C           3.8952   -2.0221   -0.3268 C.ar    1  UNL1        0.3314
     34 C           1.8673   -1.4337    0.8766 C.ar    1  UNL1        0.0171
     35 C           1.3849   -2.6778    0.8514 C.ar    1  UNL1        0.0192
     36 C           2.1704   -3.7434    0.1969 C.ar    1  UNL1        0.2539
     37 H           2.2100    3.2080   -0.6231 H       1  UNL1        0.0647
     38 H           1.9638    0.8240   -1.0416 H       1  UNL1        0.0665
     39 H           2.8317    2.8935    2.0577 H       1  UNL1        0.0647
     40 H           4.6131    0.3428    0.4184 H       1  UNL1        0.0867
     41 H          -4.3322   -1.5173   -1.2870 H       1  UNL1        0.0648
     42 H          -4.7079   -2.4422    0.9808 H       1  UNL1        0.0647
     43 H          -1.4281   -2.4212   -0.9616 H       1  UNL1        0.0671
     44 H          -4.0125   -0.0336    0.8962 H       1  UNL1        0.0647
     45 H          -0.8132   -0.0767   -0.8098 H       1  UNL1        0.0943
     46 H           0.6724    1.7911    2.5229 H       1  UNL1        0.0592
     47 H           0.5233    1.2637    0.8515 H       1  UNL1        0.0592
     48 H          -4.1617   -1.3120    3.1819 H       1  UNL1        0.0584
     49 H          -2.3760   -1.2089    3.1842 H       1  UNL1        0.0584
     50 H           4.0582    3.9822    0.4306 H       1  UNL1        0.2100
     51 H           3.8757    0.2407   -2.1830 H       1  UNL1        0.2101
     52 H           1.2786   -0.6720    1.3658 H       1  UNL1        0.0813
     53 H          -4.6544   -3.7642   -1.0569 H       1  UNL1        0.2100
     54 H          -1.9041   -2.8305    1.1613 H       1  UNL1        0.2100
     55 H          -1.2073   -1.2223   -2.8870 H       1  UNL1        0.2101
     56 H           3.9415   -4.0315   -0.8032 H       1  UNL1        0.1734
     57 H           0.4340   -2.9338    1.3013 H       1  UNL1        0.0686
     58 H          -3.3802    0.5543    4.1895 H       1  UNL1        0.2095
     59 H          -0.6984    1.8289   -3.7561 H       1  UNL1        0.2220
     60 H          -0.7716    5.2701   -0.4684 H       1  UNL1        0.2220
@<TRIPOS>BOND
     1     1     7    1
     2     1    12    1
     3     1    15    1
     4     1    17    2
     5     2     8    1
     6     2    12    1
     7     2    16    1
     8     2    18    2
     9     3    24    1
    10     3    25    1
    11     4    29    1
    12     4    30    1
    13     5    22    1
    14     5    50    1
    15     6    23    1
    16     6    51    1
    17     7    30    1
    18     8    31    1
    19     9    26    1
    20     9    53    1
    21    10    27    1
    22    10    54    1
    23    11    28    1
    24    11    55    1
    25    13    32    1
    26    13    58    1
    27    14    33    2
    28    15    59    1
    29    16    60    1
    30    19    36    2
    31    20    25    1
    32    20    33   ar
    33    20    34   ar
    34    21    33   ar
    35    21    36   ar
    36    21    56    1
    37    22    23    1
    38    22    24    1
    39    22    37    1
    40    23    25    1
    41    23    38    1
    42    24    31    1
    43    24    39    1
    44    25    40    1
    45    26    27    1
    46    26    28    1
    47    26    41    1
    48    27    29    1
    49    27    42    1
    50    28    30    1
    51    28    43    1
    52    29    32    1
    53    29    44    1
    54    30    45    1
    55    31    46    1
    56    31    47    1
    57    32    48    1
    58    32    49    1
    59    34    35   ar
    60    34    52    1
    61    35    36   ar
    62    35    57    1
