@<TRIPOS>MOLECULE
udp_glucose
 60 62 0 0 0
SMALL
GASTEIGER

@<TRIPOS>ATOM
      1 P          -1.7751    2.3103   -1.8367 P.3     1  UNL1        0.4857
      2 P          -0.7677    3.4182    0.6960 P.3     1  UNL1        0.4835
      3 O           3.1165    0.5022    1.6438 O.3     1  UNL1       -0.3456
      4 O          -1.9674   -0.1488    0.7945 O.3     1  UNL1       -0.3400
      5 O           4.5052    2.6812    0.1227 O.3     1  UNL1       -0.3864
      6 O           3.9285    0.8665   -1.8299 O.3     1  UNL1       -0.3847
      7 O          -2.5805    1.1104   -1.1184 O.3     1  UNL1       -0.2536
      8 O           0.7139    3.2222    1.3154 O.3     1  UNL1       -0.2837
      9 O          -3.9285   -3.0936   -1.3344 O.3     1  UNL1       -0.3864
     10 O          -5.1663   -1.9687    1.0010 O.3     1  UNL1       -0.3865
     11 O          -2.2696   -1.1710   -2.7226 O.3     1  UNL1       -0.3841
     12 O          -0.6426    2.7422   -0.7670 O.3     1  UNL1       -0.1860
     13 O          -2.3794   -1.5159    3.1725 O.3     1  UNL1       -0.3924
     14 O           4.7663   -2.2227   -0.9527 O.2     1  UNL1       -0.2464
     15 O          -0.9234    1.5868   -3.0066 O.3     1  UNL1       -0.3022
     16 O          -0.8430    4.9990    0.3607 O.3     1  UNL1       -0.3022
     17 O          -2.6388    3.4434   -2.3100 O.2     1  UNL1       -0.2268
     18 O          -1.8978    2.8931    1.5322 O.2     1  UNL1       -0.2269
     19 O           1.1953   -5.0122   -0.1097 O.2     1  UNL1       -0.2677
     20 N           2.9539   -1.3646    0.2463 N.ar    1  UNL1       -0.2715
     21 N           2.9867   -3.6101   -0.5325 N.ar    1  UNL1       -0.2749
     22 C           3.1535    2.2326    0.0264 C.3     1  UNL1        0.1135
     23 C           3.0921    0.9012   -0.6919 C.3     1  UNL1        0.1286
     24 C           2.6811    1.8622    1.4258 C.3     1  UNL1        0.1134
     25 C           3.5407   -0.0631    0.3927 C.3     1  UNL1        0.1679
     26 C          -3.6887   -1.7633   -0.8694 C.3     1  UNL1        0.1141
     27 C          -3.7985   -1.7613    0.6566 C.3     1  UNL1        0.1119
     28 C          -2.2928   -1.3250   -1.3080 C.3     1  UNL1        0.1346
     29 C          -3.2950   -0.4374    1.2474 C.3     1  UNL1        0.1130
     30 C          -1.8690   -0.0234   -0.6257 C.3     1  UNL1        0.1988
     31 C           1.1670    1.9064    1.5814 C.3     1  UNL1        0.0879
     32 C          -3.2477   -0.4717    2.7726 C.3     1  UNL1        0.0730
     33 C           3.6522   -2.3798   -0.4486 C.ar    1  UNL1        0.3314
     34 C           1.7004   -1.6255    0.7876 C.ar    1  UNL1        0.0171
     35 C           1.0788   -2.8032    0.6994 C.ar    1  UNL1        0.0192
     36 C           1.7397   -3.9168   -0.0106 C.ar    1  UNL1        0.2539
     37 H           2.5779    3.0172   -0.4724 H       1  UNL1        0.0647
     38 H           2.0638    0.6917   -1.0115 H       1  UNL1        0.0665
     39 H           3.1493    2.4964    2.1872 H       1  UNL1        0.0647
     40 H           4.6334   -0.1542    0.4153 H       1  UNL1        0.0867
     41 H          -4.4600   -1.1331   -1.3271 H       1  UNL1        0.0648
     42 H          -3.2310   -2.6098    1.0563 H       1  UNL1        0.0647
     43 H          -1.5799   -2.1193   -1.0533 H       1  UNL1        0.0671
     44 H          -3.9602    0.3866    0.9585 H       1  UNL1        0.0647
     45 H          -0.8048    0.1240   -0.8400 H       1  UNL1        0.0943
     46 H           0.8759    1.6260    2.5992 H       1  UNL1        0.0592
     47 H           0.6747    1.2060    0.9030 H       1  UNL1        0.0592
     48 H          -2.8456    0.4680    3.1649 H       1  UNL1        0.0584
     49 H          -4.2393   -0.6460    3.2010 H       1  UNL1        0.0584
     50 H           4.4988    3.5196    0.6154 H       1  UNL1        0.2100
     51 H           3.6437    1.5819   -2.4236 H       1  UNL1        0.2101
     52 H           1.2004   -0.8270    1.3153 H       1  UNL1        0.0813
     53 H          -3.2465   -3.6747   -0.9566 H       1  UNL1        0.2100
     54 H          -5.6772   -1.2093    0.6724 H       1  UNL1        0.2100
     55 H          -1.3751   -0.8817   -2.9710 H       1  UNL1        0.2101
     56 H           3.4701   -4.3543   -1.0277 H       1  UNL1        0.1734
     57 H           0.1007   -2.9695    1.1342 H       1  UNL1        0.0686
     58 H          -2.3593   -1.5159    4.1447 H       1  UNL1        0.2095
     59 H          -0.4564    2.1426   -3.6663 H       1  UNL1        0.2220
     60 H          -0.1482    5.3965   -0.2062 H       1  UNL1        0.2220
@<TRIPOS>BOND
     1     1     7    1
     2     1    12    1
     3     1    15    1
     4     1    17    2
     5     2     8    1
     6     2    12    1
     7     2    16    1
     8     2    18    2
     9     3    24    1
    10     3    25    1
    11     4    29    1
    12     4    30    1
    13     5    22    1
    14     5    50    1
    15     6    23    1
    16     6    51    1
    17     7    30    1
    18     8    31    1
    19     9    26    1
    20     9    53    1
    21    10    27    1
    22    10    54    1
    23    11    28    1
    24    11    55    1
    25    13    32    1
    26    13    58    1
    27    14    33    2
    28    15    59    1
    29    16    60    1
    30    19    36    2
    31    20    25    1
    32    20    33   ar
    33    20    34   ar
    34    21    33   ar
    35    21    36   ar
    36    21    56    1
    37    22    23    1
    38    22    24    1
    39    22    37    1
    40    23    25    1
    41    23    38    1
    42    24    31    1
    43    24    39    1
    44    25    40    1
    45    26    27    1
    46    26    28    1
    47    26    41    1
    48    27    29    1
    49    27    42    1
    50    28    30    1
    51    28    43    1
    52    29    32    1
    53    29    44    1
    54    30    45    1
    55    31    46    1
    56    31    47    1
    57    32    48    1
    58    32    49    1
    59    34    35   ar
    60    34    52    1
    61    35    36   ar
    62    35    57    1
