@<TRIPOS>MOLECULE
xylitol
 22 21 0 0 0
SMALL
GASTEIGER

@<TRIPOS>ATOM
      1 O           0.0350   -1.6445   -0.7707 O.3     1  UNL1       -0.3865
      2 O           1.3263    1.6290    0.1346 O.3     1  UNL1       -0.3869
      3 O          -1.3496    1.6428    0.0895 O.3     1  UNL1       -0.3869
      4 O           2.6872   -0.6169    1.1484 O.3     1  UNL1       -0.3924
      5 O          -2.6870   -0.6434    1.1539 O.3     1  UNL1       -0.3924
      6 C          -0.0061   -0.3549   -0.1477 C.3     1  UNL1        0.1111
      7 C           1.2876    0.3744   -0.5579 C.3     1  UNL1        0.1065
      8 C          -1.2973    0.3759   -0.5633 C.3     1  UNL1        0.1065
      9 C           2.5838   -0.3719   -0.2489 C.3     1  UNL1        0.0727
     10 C          -2.5800   -0.3905   -0.2378 C.3     1  UNL1        0.0727
     11 H          -0.0075   -0.4969    0.9396 H       1  UNL1        0.0647
     12 H           1.2727    0.5833   -1.6346 H       1  UNL1        0.0643
     13 H          -1.2748    0.5571   -1.6448 H       1  UNL1        0.0643
     14 H           3.4524    0.2281   -0.5403 H       1  UNL1        0.0584
     15 H           2.6348   -1.3299   -0.7739 H       1  UNL1        0.0584
     16 H          -3.4547    0.1996   -0.5317 H       1  UNL1        0.0584
     17 H          -2.6105   -1.3465   -0.7698 H       1  UNL1        0.0584
     18 H           0.0090   -1.5094   -1.7336 H       1  UNL1        0.2100
     19 H           0.6052    2.1799   -0.2134 H       1  UNL1        0.2100
     20 H          -2.1422    2.1066   -0.2304 H       1  UNL1        0.2100
     21 H           2.6261    0.2421    1.6001 H       1  UNL1        0.2095
     22 H          -3.5194   -1.1260    1.2944 H       1  UNL1        0.2095
@<TRIPOS>BOND
     1     1     6    1
     2     1    18    1
     3     2     7    1
     4     2    19    1
     5     3     8    1
     6     3    20    1
     7     4     9    1
     8     4    21    1
     9     5    10    1
    10     5    22    1
    11     6     7    1
    12     6     8    1
    13     6    11    1
    14     7     9    1
    15     7    12    1
    16     8    10    1
    17     8    13    1
    18     9    14    1
    19     9    15    1
    20    10    16    1
    21    10    17    1
