@<TRIPOS>MOLECULE
ceramide_c16
 105 104 0 0 0
SMALL
GASTEIGER

@<TRIPOS>ATOM
      1 O           1.6240   -0.2795   -0.2356 O.3     1  UNL1       -0.3859
      2 O           2.5729    3.6779   -2.2936 O.2     1  UNL1       -0.2758
      3 O           0.3620    4.1711   -0.9077 O.3     1  UNL1       -0.3931
      4 N           2.9121    2.3512   -0.5010 N.am    1  UNL1       -0.3075
      5 C           2.6451    7.6974   -4.9659 C.3     1  UNL1       -0.0531
      6 C           2.8089    6.6074   -6.0299 C.3     1  UNL1       -0.0531
      7 C           3.3958    7.3632   -3.6770 C.3     1  UNL1       -0.0531
      8 C           2.2837    5.2561   -5.5320 C.3     1  UNL1       -0.0531
      9 C           4.9036    7.2197   -3.8819 C.3     1  UNL1       -0.0531
     10 C           0.7936    5.3306   -5.1756 C.3     1  UNL1       -0.0531
     11 C           5.5967    6.8916   -2.5670 C.3     1  UNL1       -0.0530
     12 C          -5.9223   -2.1629   -3.5088 C.3     1  UNL1       -0.0531
     13 C          -7.1603   -1.6690   -2.7506 C.3     1  UNL1       -0.0531
     14 C          -4.7069   -1.2618   -3.2586 C.3     1  UNL1       -0.0531
     15 C          -0.0539    5.7162   -6.3894 C.3     1  UNL1       -0.0531
     16 C          -8.3639   -2.5786   -3.0010 C.3     1  UNL1       -0.0531
     17 C           5.1805    5.5891   -1.8804 C.3     1  UNL1       -0.0526
     18 C          -3.4743   -1.7540   -4.0238 C.3     1  UNL1       -0.0530
     19 C          -9.6094   -2.1032   -2.2568 C.3     1  UNL1       -0.0531
     20 C          -2.2633   -0.8493   -3.7719 C.3     1  UNL1       -0.0528
     21 C           0.1008    4.7095   -7.5326 C.3     1  UNL1       -0.0531
     22 C           5.3276    4.3194   -2.7182 C.3     1  UNL1       -0.0448
     23 C         -10.8169   -3.0274   -2.5148 C.3     1  UNL1       -0.0531
     24 C          -1.0117   -1.3290   -4.5211 C.3     1  UNL1       -0.0496
     25 C          -0.3402    3.3064   -7.1032 C.3     1  UNL1       -0.0533
     26 C           4.8775    3.0367   -1.9709 C.3     1  UNL1        0.0240
     27 C         -12.0630   -2.5567   -1.7717 C.3     1  UNL1       -0.0533
     28 C           0.1999   -0.4188   -4.2718 C.3     1  UNL1       -0.0347
     29 CA          1.5241    2.1284   -0.0028 C.3     1  UNL1        0.0756
     30 C           0.8186    0.8495   -0.6035 C.3     1  UNL1        0.0938
     31 C          -0.1848    2.2874   -8.2253 C.3     1  UNL1       -0.0559
     32 C           3.3785    3.0427   -1.6130 C.2     1  UNL1        0.2134
     33 C         -13.2738   -3.4574   -2.0216 C.3     1  UNL1       -0.0559
     34 C           0.5632   -0.3615   -2.8160 C.2     1  UNL1       -0.0855
     35 C           0.5938    0.7789   -2.0912 C.2     1  UNL1       -0.0580
     36 C           0.6228    3.3718    0.2238 C.3     1  UNL1        0.0653
     37 C          -0.6408    0.9133   -7.7698 C.3     1  UNL1       -0.0653
     38 C         -14.5009   -2.9639   -1.2670 C.3     1  UNL1       -0.0653
     39 H           1.5844    7.8319   -4.7187 H       1  UNL1        0.0265
     40 H           2.9691    8.6613   -5.3668 H       1  UNL1        0.0265
     41 H           2.2880    6.9142   -6.9430 H       1  UNL1        0.0265
     42 H           3.8560    6.5099   -6.3339 H       1  UNL1        0.0265
     43 H           2.9963    6.4433   -3.2461 H       1  UNL1        0.0265
     44 H           3.1912    8.1418   -2.9332 H       1  UNL1        0.0265
     45 H           2.4790    4.4860   -6.2848 H       1  UNL1        0.0265
     46 H           2.8445    4.9178   -4.6586 H       1  UNL1        0.0265
     47 H           5.3104    8.1656   -4.2699 H       1  UNL1        0.0265
     48 H           5.1365    6.4568   -4.6175 H       1  UNL1        0.0265
     49 H           0.4725    4.3749   -4.7508 H       1  UNL1        0.0265
     50 H           0.6164    6.0474   -4.3664 H       1  UNL1        0.0265
     51 H           5.3863    7.7124   -1.8716 H       1  UNL1        0.0265
     52 H           6.6745    6.8949   -2.7435 H       1  UNL1        0.0265
     53 H          -6.1300   -2.2021   -4.5845 H       1  UNL1        0.0265
     54 H          -5.6885   -3.1869   -3.1947 H       1  UNL1        0.0265
     55 H          -6.9387   -1.6391   -1.6785 H       1  UNL1        0.0265
     56 H          -7.4021   -0.6442   -3.0530 H       1  UNL1        0.0265
     57 H          -4.4839   -1.2262   -2.1859 H       1  UNL1        0.0265
     58 H          -4.9461   -0.2332   -3.5635 H       1  UNL1        0.0265
     59 H          -1.1028    5.8028   -6.0913 H       1  UNL1        0.0265
     60 H           0.2222    6.7117   -6.7517 H       1  UNL1        0.0265
     61 H          -8.5749   -2.6262   -4.0802 H       1  UNL1        0.0265
     62 H          -8.1281   -3.6025   -2.6822 H       1  UNL1        0.0265
     63 H           4.1508    5.6781   -1.5250 H       1  UNL1        0.0265
     64 H           5.8094    5.4821   -0.9942 H       1  UNL1        0.0265
     65 H          -3.6893   -1.7811   -5.0987 H       1  UNL1        0.0265
     66 H          -3.2444   -2.7815   -3.7184 H       1  UNL1        0.0265
     67 H          -9.4039   -2.0679   -1.1780 H       1  UNL1        0.0265
     68 H          -9.8627   -1.0757   -2.5576 H       1  UNL1        0.0265
     69 H          -2.0628   -0.8173   -2.6961 H       1  UNL1        0.0265
     70 H          -2.5055    0.1748   -4.0805 H       1  UNL1        0.0265
     71 H          -0.4827    5.0478   -8.3965 H       1  UNL1        0.0265
     72 H           1.1388    4.6751   -7.8793 H       1  UNL1        0.0265
     73 H           6.3816    4.2088   -2.9916 H       1  UNL1        0.0270
     74 H           4.7788    4.4054   -3.6604 H       1  UNL1        0.0270
     75 H         -11.0141   -3.0655   -3.6027 H       1  UNL1        0.0265
     76 H         -10.5654   -4.0488   -2.2057 H       1  UNL1        0.0265
     77 H          -1.2133   -1.3634   -5.5958 H       1  UNL1        0.0268
     78 H          -0.7699   -2.3524   -4.2133 H       1  UNL1        0.0268
     79 H           0.2542    2.9637   -6.2471 H       1  UNL1        0.0265
     80 H          -1.3830    3.3445   -6.7674 H       1  UNL1        0.0265
     81 H           5.4832    2.8586   -1.0943 H       1  UNL1        0.0358
     82 H           4.9916    2.2053   -2.6604 H       1  UNL1        0.0358
     83 H         -11.8440   -2.5311   -0.6944 H       1  UNL1        0.0265
     84 H         -12.3072   -1.5306   -2.0702 H       1  UNL1        0.0265
     85 H          -0.0256    0.5945   -4.6373 H       1  UNL1        0.0307
     86 H           1.0531   -0.7820   -4.8492 H       1  UNL1        0.0307
     87 HA          1.7193    1.7968    1.0233 H       1  UNL1        0.0550
     88 H          -0.1521    0.6928   -0.1071 H       1  UNL1        0.0657
     89 H          -0.7820    2.6040   -9.0857 H       1  UNL1        0.0263
     90 H           0.8619    2.2391   -8.5491 H       1  UNL1        0.0263
     91 H         -13.4996   -3.4804   -3.0942 H       1  UNL1        0.0263
     92 H         -13.0523   -4.4871   -1.7170 H       1  UNL1        0.0263
     93 H           3.6328    1.7788   -0.0579 H       1  UNL1        0.1492
     94 H           0.7312   -1.3224   -2.3279 H       1  UNL1        0.0570
     95 H           0.3736    1.7256   -2.5880 H       1  UNL1        0.0595
     96 H1         -0.3447    3.0798    0.6455 H       1  UNL1        0.0576
     97 H2          1.0973    4.0101    0.9781 H       1  UNL1        0.0576
     98 H          -1.6804    0.9412   -7.4306 H       1  UNL1        0.0230
     99 H          -0.5642    0.1956   -8.5890 H       1  UNL1        0.0230
    100 H          -0.0215    0.5474   -6.9477 H       1  UNL1        0.0230
    101 H         -14.7551   -1.9415   -1.5622 H       1  UNL1        0.0230
    102 H         -15.3641   -3.6018   -1.4818 H       1  UNL1        0.0230
    103 H         -14.3353   -2.9756   -0.1856 H       1  UNL1        0.0230
    104 H           2.4050   -0.2329   -0.8147 H       1  UNL1        0.2103
    105 H           1.2181    4.5150   -1.2310 H       1  UNL1        0.2095
@<TRIPOS>BOND
     1     1    30    1
     2     1   104    1
     3     2    32    2
     4     3    36    1
     5     3   105    1
     6     4    29    1
     7     4    32   am
     8     4    93    1
     9     5     6    1
    10     5     7    1
    11     5    39    1
    12     5    40    1
    13     6     8    1
    14     6    41    1
    15     6    42    1
    16     7     9    1
    17     7    43    1
    18     7    44    1
    19     8    10    1
    20     8    45    1
    21     8    46    1
    22     9    11    1
    23     9    47    1
    24     9    48    1
    25    10    15    1
    26    10    49    1
    27    10    50    1
    28    11    17    1
    29    11    51    1
    30    11    52    1
    31    12    13    1
    32    12    14    1
    33    12    53    1
    34    12    54    1
    35    13    16    1
    36    13    55    1
    37    13    56    1
    38    14    18    1
    39    14    57    1
    40    14    58    1
    41    15    21    1
    42    15    59    1
    43    15    60    1
    44    16    19    1
    45    16    61    1
    46    16    62    1
    47    17    22    1
    48    17    63    1
    49    17    64    1
    50    18    20    1
    51    18    65    1
    52    18    66    1
    53    19    23    1
    54    19    67    1
    55    19    68    1
    56    20    24    1
    57    20    69    1
    58    20    70    1
    59    21    25    1
    60    21    71    1
    61    21    72    1
    62    22    26    1
    63    22    73    1
    64    22    74    1
    65    23    27    1
    66    23    75    1
    67    23    76    1
    68    24    28    1
    69    24    77    1
    70    24    78    1
    71    25    31    1
    72    25    79    1
    73    25    80    1
    74    26    32    1
    75    26    81    1
    76    26    82    1
    77    27    33    1
    78    27    83    1
    79    27    84    1
    80    28    34    1
    81    28    85    1
    82    28    86    1
    83    29    30    1
    84    29    36    1
    85    29    87    1
    86    30    35    1
    87    30    88    1
    88    31    37    1
    89    31    89    1
    90    31    90    1
    91    33    38    1
    92    33    91    1
    93    33    92    1
    94    34    35    2
    95    34    94    1
    96    35    95    1
    97    36    96    1
    98    36    97    1
    99    37    98    1
   100    37    99    1
   101    37   100    1
   102    38   101    1
   103    38   102    1
   104    38   103    1
