@<TRIPOS>MOLECULE
ceramide_c18
 111 110 0 0 0
SMALL
GASTEIGER

@<TRIPOS>ATOM
      1 O           1.6098    0.2127    0.5084 O.3     1  UNL1       -0.3859
      2 O           2.6671   -4.1829    1.0990 O.2     1  UNL1       -0.2758
      3 O           0.4539   -4.2610   -0.4024 O.3     1  UNL1       -0.3931
      4 N           2.9675   -2.3907   -0.1454 N.am    1  UNL1       -0.3075
      5 C           7.4799   -3.6820    7.5910 C.3     1  UNL1       -0.0531
      6 C           8.7951   -4.1573    8.2176 C.3     1  UNL1       -0.0531
      7 C           7.7087   -3.2175    6.1469 C.3     1  UNL1       -0.0531
      8 C           8.5695   -4.6312    9.6546 C.3     1  UNL1       -0.0531
      9 C           6.4124   -2.7307    5.4995 C.3     1  UNL1       -0.0531
     10 C           9.8859   -5.1000   10.2752 C.3     1  UNL1       -0.0531
     11 C           6.6161   -2.2714    4.0485 C.3     1  UNL1       -0.0531
     12 C           9.6581   -5.5743   11.7116 C.3     1  UNL1       -0.0531
     13 C           5.2882   -1.7903    3.4941 C.3     1  UNL1       -0.0530
     14 C          10.9693   -6.0473   12.3434 C.3     1  UNL1       -0.0531
     15 C          -2.4668   -7.9652    1.9383 C.3     1  UNL1       -0.0531
     16 C           5.3246   -1.3066    2.0497 C.3     1  UNL1       -0.0526
     17 C          -1.8974   -9.0713    1.0411 C.3     1  UNL1       -0.0531
     18 C          -1.5365   -6.7465    1.9731 C.3     1  UNL1       -0.0531
     19 C          -2.8268  -10.2915    1.0073 C.3     1  UNL1       -0.0531
     20 C          -2.1027   -5.6382    2.8714 C.3     1  UNL1       -0.0530
     21 C          -2.2601  -11.4032    0.1135 C.3     1  UNL1       -0.0531
     22 C          10.7438   -6.5217   13.7832 C.3     1  UNL1       -0.0531
     23 C          -1.1739   -4.4207    2.9053 C.3     1  UNL1       -0.0528
     24 C           5.8249   -2.2988    1.0203 C.3     1  UNL1       -0.0448
     25 C          -3.1966  -12.6203    0.0769 C.3     1  UNL1       -0.0531
     26 C          -1.7249   -3.2985    3.7984 C.3     1  UNL1       -0.0496
     27 C          12.0548   -6.9955   14.4143 C.3     1  UNL1       -0.0533
     28 C           4.9358   -3.5356    0.9210 C.3     1  UNL1        0.0240
     29 C          -2.6380  -13.7337   -0.8167 C.3     1  UNL1       -0.0533
     30 C          -0.7942   -2.0758    3.8379 C.3     1  UNL1       -0.0347
     31 CA          1.5393   -1.9807   -0.5471 C.3     1  UNL1        0.0756
     32 C          11.8594   -7.4757   15.8545 C.3     1  UNL1       -0.0559
     33 C           0.8009   -0.9820    0.4339 C.3     1  UNL1        0.0938
     34 C           3.4153   -3.3443    0.6749 C.2     1  UNL1        0.2134
     35 C          -3.5608  -14.9555   -0.8578 C.3     1  UNL1       -0.0559
     36 C          -0.6079   -1.4913    2.4603 C.2     1  UNL1       -0.0855
     37 C           0.5876   -1.4193    1.8486 C.2     1  UNL1       -0.0580
     38 C           0.6980   -3.1105   -1.1957 C.3     1  UNL1        0.0653
     39 C          13.1815   -7.9427   16.4499 C.3     1  UNL1       -0.0653
     40 C          -2.9875  -16.0496   -1.7504 C.3     1  UNL1       -0.0653
     41 H           7.0513   -2.8648    8.1863 H       1  UNL1        0.0265
     42 H           6.7437   -4.4962    7.6292 H       1  UNL1        0.0265
     43 H           9.2353   -4.9525    7.5994 H       1  UNL1        0.0265
     44 H           9.5393   -3.3489    8.2189 H       1  UNL1        0.0265
     45 H           8.1229   -4.0409    5.5526 H       1  UNL1        0.0265
     46 H           8.4759   -2.4338    6.1387 H       1  UNL1        0.0265
     47 H           8.1186   -3.8177   10.2394 H       1  UNL1        0.0265
     48 H           7.8414   -5.4519    9.6988 H       1  UNL1        0.0265
     49 H           5.9706   -1.8988    6.0676 H       1  UNL1        0.0265
     50 H           5.6662   -3.5390    5.5372 H       1  UNL1        0.0265
     51 H          10.3092   -5.9061    9.6612 H       1  UNL1        0.0265
     52 H          10.6339   -4.2964   10.2652 H       1  UNL1        0.0265
     53 H           6.9729   -3.0970    3.4268 H       1  UNL1        0.0265
     54 H           7.3485   -1.4588    3.9911 H       1  UNL1        0.0265
     55 H           9.2129   -4.7581   12.2964 H       1  UNL1        0.0265
     56 H           8.9224   -6.3898   11.7328 H       1  UNL1        0.0265
     57 H           4.9411   -0.9441    4.0960 H       1  UNL1        0.0265
     58 H           4.5523   -2.5978    3.6076 H       1  UNL1        0.0265
     59 H          11.4004   -6.8473   11.7261 H       1  UNL1        0.0265
     60 H          11.7143   -5.2405   12.3345 H       1  UNL1        0.0265
     61 H          -2.6185   -8.3365    2.9616 H       1  UNL1        0.0265
     62 H          -3.4638   -7.6791    1.5766 H       1  UNL1        0.0265
     63 H          -1.7444   -8.6761    0.0290 H       1  UNL1        0.0265
     64 H          -0.9048   -9.3824    1.3920 H       1  UNL1        0.0265
     65 H           5.8909   -0.3669    1.9630 H       1  UNL1        0.0265
     66 H           4.2934   -1.0789    1.7830 H       1  UNL1        0.0265
     67 H          -1.3847   -6.3546    0.9593 H       1  UNL1        0.0265
     68 H          -0.5449   -7.0562    2.3283 H       1  UNL1        0.0265
     69 H          -2.9747  -10.6610    2.0312 H       1  UNL1        0.0265
     70 H          -3.8232  -10.0044    0.6451 H       1  UNL1        0.0265
     71 H          -2.2422   -6.0137    3.8925 H       1  UNL1        0.0265
     72 H          -3.1010   -5.3562    2.5127 H       1  UNL1        0.0265
     73 H          -2.1003  -11.0075   -0.8980 H       1  UNL1        0.0265
     74 H          -1.2701  -11.7133    0.4725 H       1  UNL1        0.0265
     75 H          10.3142   -5.7013   14.3721 H       1  UNL1        0.0265
     76 H          10.0026   -7.3315   13.8130 H       1  UNL1        0.0265
     77 H          -1.0237   -4.0346    1.8899 H       1  UNL1        0.0265
     78 H          -0.1821   -4.7292    3.2588 H       1  UNL1        0.0265
     79 H           6.8640   -2.5742    1.2480 H       1  UNL1        0.0270
     80 H           5.8446   -1.8029    0.0461 H       1  UNL1        0.0270
     81 H          -3.3489  -12.9896    1.0994 H       1  UNL1        0.0265
     82 H          -4.1885  -12.3259   -0.2888 H       1  UNL1        0.0265
     83 H          -1.8734   -3.6641    4.8213 H       1  UNL1        0.0268
     84 H          -2.7155   -2.9933    3.4345 H       1  UNL1        0.0268
     85 H          12.4834   -7.8029   13.8084 H       1  UNL1        0.0265
     86 H          12.7880   -6.1804   14.4083 H       1  UNL1        0.0265
     87 H           5.0362   -4.1445    1.8349 H       1  UNL1        0.0358
     88 H           5.3554   -4.1581    0.1258 H       1  UNL1        0.0358
     89 H          -2.4962  -13.3457   -1.8325 H       1  UNL1        0.0265
     90 H          -1.6473  -14.0435   -0.4596 H       1  UNL1        0.0265
     91 H           0.1748   -2.3614    4.2656 H       1  UNL1        0.0307
     92 H          -1.2161   -1.3254    4.5172 H       1  UNL1        0.0307
     93 HA          1.7467   -1.3382   -1.4216 H       1  UNL1        0.0550
     94 H          11.4553   -6.6568   16.4626 H       1  UNL1        0.0263
     95 H          11.1285   -8.2930   15.9035 H       1  UNL1        0.0263
     96 H          -0.1499   -0.6518   -0.0155 H       1  UNL1        0.0657
     97 H          -3.6920  -15.3515    0.1562 H       1  UNL1        0.0263
     98 H          -4.5582  -14.6783   -1.2196 H       1  UNL1        0.0263
     99 H           3.6171   -1.6672   -0.3938 H       1  UNL1        0.1492
    100 H          -1.5112   -1.2264    1.9130 H       1  UNL1        0.0570
    101 H           1.4747   -1.6970    2.4094 H       1  UNL1        0.0595
    102 H1         -0.2779   -2.7241   -1.5155 H       1  UNL1        0.0576
    103 H2          1.1861   -3.4325   -2.1305 H       1  UNL1        0.0576
    104 H          13.9184   -7.1325   16.4244 H       1  UNL1        0.0230
    105 H          13.0457   -8.2554   17.4897 H       1  UNL1        0.0230
    106 H          13.5934   -8.7941   15.8971 H       1  UNL1        0.0230
    107 H          -2.0027  -16.3641   -1.3880 H       1  UNL1        0.0230
    108 H          -3.6464  -16.9244   -1.7582 H       1  UNL1        0.0230
    109 H          -2.8764  -15.7097   -2.7862 H       1  UNL1        0.0230
    110 H           2.4137   -0.0339    0.9951 H       1  UNL1        0.2103
    111 H           1.3159   -4.6890   -0.2201 H       1  UNL1        0.2095
@<TRIPOS>BOND
     1    33     1    1
     2     1   110    1
     3     2    34    2
     4     3    38    1
     5     3   111    1
     6    31     4    1
     7     4    34   am
     8     4    99    1
     9     5     6    1
    10     5     7    1
    11     5    41    1
    12     5    42    1
    13     6     8    1
    14     6    43    1
    15     6    44    1
    16     7     9    1
    17     7    45    1
    18     7    46    1
    19     8    10    1
    20     8    47    1
    21     8    48    1
    22     9    11    1
    23     9    49    1
    24     9    50    1
    25    10    12    1
    26    10    51    1
    27    10    52    1
    28    11    13    1
    29    11    53    1
    30    11    54    1
    31    12    14    1
    32    12    55    1
    33    12    56    1
    34    13    16    1
    35    13    57    1
    36    13    58    1
    37    14    22    1
    38    14    59    1
    39    14    60    1
    40    15    17    1
    41    15    18    1
    42    15    61    1
    43    15    62    1
    44    16    24    1
    45    16    65    1
    46    16    66    1
    47    17    19    1
    48    17    63    1
    49    17    64    1
    50    18    20    1
    51    18    67    1
    52    18    68    1
    53    19    21    1
    54    19    69    1
    55    19    70    1
    56    20    23    1
    57    20    71    1
    58    20    72    1
    59    21    25    1
    60    21    73    1
    61    21    74    1
    62    22    27    1
    63    22    75    1
    64    22    76    1
    65    23    26    1
    66    23    77    1
    67    23    78    1
    68    24    28    1
    69    24    79    1
    70    24    80    1
    71    25    29    1
    72    25    81    1
    73    25    82    1
    74    26    30    1
    75    26    83    1
    76    26    84    1
    77    27    32    1
    78    27    85    1
    79    27    86    1
    80    28    34    1
    81    28    87    1
    82    28    88    1
    83    29    35    1
    84    29    89    1
    85    29    90    1
    86    30    36    1
    87    30    91    1
    88    30    92    1
    89    31    33    1
    90    31    38    1
    91    31    93    1
    92    32    39    1
    93    32    94    1
    94    32    95    1
    95    33    37    1
    96    33    96    1
    97    35    40    1
    98    35    97    1
    99    35    98    1
   100    36    37    2
   101    36   100    1
   102    37   101    1
   103    38   102    1
   104    38   103    1
   105    39   104    1
   106    39   105    1
   107    39   106    1
   108    40   107    1
   109    40   108    1
   110    40   109    1
