@<TRIPOS>MOLECULE
galactosylceramide_c16
 126 126 0 0 0
SMALL
GASTEIGER

@<TRIPOS>ATOM
      1 O          -1.6151    0.9307    9.0081 O.3     1  UNL1       -0.3405
      2 O          -0.8249    1.3639    6.8389 O.3     1  UNL1       -0.3468
      3 O           1.2348    3.4457   10.7559 O.3     1  UNL1       -0.3864
      4 O          -1.5198    3.0308   10.9467 O.3     1  UNL1       -0.3865
      5 O           1.4555    2.7397    7.9287 O.3     1  UNL1       -0.3841
      6 O          -3.1698   -0.8656   10.5104 O.3     1  UNL1       -0.3924
      7 O          -1.7140   -0.0659    4.9255 O.3     1  UNL1       -0.3859
      8 O          -4.4319    5.2221    4.6217 O.2     1  UNL1       -0.2758
      9 N          -3.2903    3.3503    4.8549 N.am    1  UNL1       -0.3075
     10 C           0.6444    2.2604   10.2095 C.3     1  UNL1        0.1141
     11 C          -0.6212    1.9040   10.9991 C.3     1  UNL1        0.1119
     12 C           0.3069    2.4652    8.7189 C.3     1  UNL1        0.1341
     13 C          -1.2856    0.6593   10.3891 C.3     1  UNL1        0.1130
     14 C          -0.4589    1.2181    8.2073 C.3     1  UNL1        0.1880
     15 C          -2.5890    0.2943   11.1102 C.3     1  UNL1        0.0730
     16 C          -1.8331    2.3563    6.6094 C.3     1  UNL1        0.0718
     17 C          -2.2222    2.3793    5.1237 C.3     1  UNL1        0.0759
     18 C          -2.7109    0.9600    4.7533 C.3     1  UNL1        0.0938
     19 C          -1.1480    6.9643    8.8213 C.3     1  UNL1       -0.0531
     20 C          -1.1568    8.4787    9.0330 C.3     1  UNL1       -0.0531
     21 C          -2.5263    6.4363    8.4339 C.3     1  UNL1       -0.0530
     22 C           0.2100    9.0101    9.4330 C.3     1  UNL1       -0.0531
     23 C          -3.1333    7.0406    7.1470 C.3     1  UNL1       -0.0526
     24 C           0.1638   10.5281    9.5944 C.3     1  UNL1       -0.0531
     25 C          -2.3996    6.9158    5.8010 C.3     1  UNL1       -0.0448
     26 C           1.5382   11.0604    9.9748 C.3     1  UNL1       -0.0531
     27 C          -2.1185    5.5373    5.1811 C.3     1  UNL1        0.0240
     28 C          -3.0597    0.7991    3.2984 C.2     1  UNL1       -0.0580
     29 C          -3.3490    4.7033    4.9037 C.2     1  UNL1        0.2134
     30 C           1.5060   12.5727   10.1635 C.3     1  UNL1       -0.0531
     31 C          -6.0803    0.5225   -0.9468 C.3     1  UNL1       -0.0531
     32 C          -4.8231   -0.1835   -0.4687 C.3     1  UNL1       -0.0530
     33 C          -5.7265    1.5904   -1.9747 C.3     1  UNL1       -0.0531
     34 C          -5.1593   -1.2675    0.5503 C.3     1  UNL1       -0.0528
     35 C          -6.9844    2.2924   -2.4693 C.3     1  UNL1       -0.0531
     36 C          -3.9143   -1.9907    1.0555 C.3     1  UNL1       -0.0496
     37 C           2.8876   13.0988   10.5371 C.3     1  UNL1       -0.0531
     38 C          -6.6424    3.3634   -3.5002 C.3     1  UNL1       -0.0531
     39 C          -2.9135   -1.0708    1.7169 C.3     1  UNL1       -0.0347
     40 C          -3.4736   -0.4237    2.9380 C.2     1  UNL1       -0.0855
     41 C          -7.9061    4.0647   -3.9953 C.3     1  UNL1       -0.0531
     42 C           2.8606   14.6134   10.7203 C.3     1  UNL1       -0.0531
     43 C          -7.5669    5.1389   -5.0280 C.3     1  UNL1       -0.0531
     44 C           4.2425   15.1355   11.1016 C.3     1  UNL1       -0.0533
     45 C          -8.8289    5.8412   -5.5282 C.3     1  UNL1       -0.0533
     46 C           4.2301   16.6494   11.2872 C.3     1  UNL1       -0.0559
     47 C          -8.4978    6.9240   -6.5542 C.3     1  UNL1       -0.0559
     48 C           5.6136   17.1629   11.6516 C.3     1  UNL1       -0.0653
     49 C          -9.7571    7.6187   -7.0474 C.3     1  UNL1       -0.0653
     50 H           1.3964    1.4668   10.3099 H       1  UNL1        0.0648
     51 H          -0.3772    1.7462   12.0564 H       1  UNL1        0.0647
     52 H          -0.3200    3.3585    8.6497 H       1  UNL1        0.0671
     53 H          -0.6081   -0.2040   10.4191 H       1  UNL1        0.0647
     54 H           0.2098    0.3512    8.2436 H       1  UNL1        0.0937
     55 H          -2.4077    0.0711   12.1661 H       1  UNL1        0.0584
     56 H          -3.3327    1.0956   11.0430 H       1  UNL1        0.0584
     57 H          -2.7161    2.1331    7.2152 H       1  UNL1        0.0580
     58 H          -1.4507    3.3286    6.9104 H       1  UNL1        0.0580
     59 H          -1.3361    2.6393    4.5323 H       1  UNL1        0.0550
     60 H           0.5242    4.1160   10.8014 H       1  UNL1        0.2100
     61 H          -2.0760    2.9488   10.1473 H       1  UNL1        0.2100
     62 H           1.9935    1.9436    7.8473 H       1  UNL1        0.2101
     63 H          -3.5789    0.6907    5.3760 H       1  UNL1        0.0657
     64 H          -4.1727    2.9658    4.5335 H       1  UNL1        0.1492
     65 H          -0.8463    6.4785    9.7589 H       1  UNL1        0.0265
     66 H          -0.4054    6.6827    8.0671 H       1  UNL1        0.0265
     67 H          -1.4613    8.9853    8.1121 H       1  UNL1        0.0265
     68 H          -1.8916    8.7378    9.8046 H       1  UNL1        0.0265
     69 H          -3.2151    6.6912    9.2474 H       1  UNL1        0.0265
     70 H          -2.5141    5.3462    8.3706 H       1  UNL1        0.0265
     71 H           0.5351    8.5447   10.3706 H       1  UNL1        0.0265
     72 H           0.9467    8.7470    8.6632 H       1  UNL1        0.0265
     73 H          -3.2558    8.1172    7.3208 H       1  UNL1        0.0265
     74 H          -4.1595    6.6650    7.0438 H       1  UNL1        0.0265
     75 H          -0.1657   10.9932    8.6564 H       1  UNL1        0.0265
     76 H          -0.5702   10.8001   10.3628 H       1  UNL1        0.0265
     77 H          -1.4496    7.4578    5.8610 H       1  UNL1        0.0270
     78 H          -3.0113    7.4772    5.0798 H       1  UNL1        0.0270
     79 H           1.8767   10.5788   10.9005 H       1  UNL1        0.0265
     80 H           2.2614   10.8012    9.1917 H       1  UNL1        0.0265
     81 H          -1.3569    5.0004    5.7414 H       1  UNL1        0.0358
     82 H          -1.6856    5.7279    4.1872 H       1  UNL1        0.0358
     83 H          -3.3893   -0.6186    9.5933 H       1  UNL1        0.2095
     84 H          -2.5558    1.4540    2.5935 H       1  UNL1        0.0595
     85 H           1.1634   13.0532    9.2392 H       1  UNL1        0.0265
     86 H           0.7867   12.8317   10.9500 H       1  UNL1        0.0265
     87 H          -6.7669   -0.2101   -1.3889 H       1  UNL1        0.0265
     88 H          -6.5971    0.9818   -0.0950 H       1  UNL1        0.0265
     89 H          -4.1475    0.5658   -0.0381 H       1  UNL1        0.0265
     90 H          -4.2992   -0.6309   -1.3227 H       1  UNL1        0.0265
     91 H          -5.0423    2.3227   -1.5282 H       1  UNL1        0.0265
     92 H          -5.2002    1.1307   -2.8205 H       1  UNL1        0.0265
     93 H          -5.8260   -2.0074    0.0955 H       1  UNL1        0.0265
     94 H          -5.7075   -0.8293    1.3929 H       1  UNL1        0.0265
     95 H          -7.6651    1.5543   -2.9134 H       1  UNL1        0.0265
     96 H          -7.5095    2.7482   -1.6202 H       1  UNL1        0.0265
     97 H          -3.4141   -2.5032    0.2264 H       1  UNL1        0.0268
     98 H          -4.2198   -2.7693    1.7679 H       1  UNL1        0.0268
     99 H           3.2263   12.6197   11.4642 H       1  UNL1        0.0265
    100 H           3.6088   12.8333    9.7544 H       1  UNL1        0.0265
    101 H          -5.9608    4.0981   -3.0549 H       1  UNL1        0.0265
    102 H          -6.1177    2.9055   -4.3464 H       1  UNL1        0.0265
    103 H          -2.5065   -0.3284    1.0212 H       1  UNL1        0.0307
    104 H          -2.0579   -1.6668    2.0542 H       1  UNL1        0.0307
    105 H          -3.8625   -1.0958    3.7015 H       1  UNL1        0.0570
    106 H          -8.5861    3.3270   -4.4367 H       1  UNL1        0.0265
    107 H          -8.4293    4.5205   -3.1461 H       1  UNL1        0.0265
    108 H           2.5265   15.0907    9.7913 H       1  UNL1        0.0265
    109 H           2.1360   14.8779   11.4999 H       1  UNL1        0.0265
    110 H          -1.1427    0.2801    5.6236 H       1  UNL1        0.2103
    111 H          -6.8871    5.8747   -4.5813 H       1  UNL1        0.0265
    112 H          -7.0391    4.6819   -5.8738 H       1  UNL1        0.0265
    113 H           4.5747   14.6533   12.0294 H       1  UNL1        0.0265
    114 H           4.9648   14.8655   10.3213 H       1  UNL1        0.0265
    115 H          -9.5052    5.1036   -5.9771 H       1  UNL1        0.0265
    116 H          -9.3584    6.2907   -4.6794 H       1  UNL1        0.0265
    117 H           3.8943   17.1363   10.3638 H       1  UNL1        0.0263
    118 H           3.5211   16.9246   12.0763 H       1  UNL1        0.0263
    119 H          -7.8277    7.6678   -6.1077 H       1  UNL1        0.0263
    120 H          -7.9703    6.4828   -7.4080 H       1  UNL1        0.0263
    121 H           6.3429   16.9037   10.8772 H       1  UNL1        0.0230
    122 H           5.6005   18.2514   11.7578 H       1  UNL1        0.0230
    123 H           5.9516   16.7307   12.5989 H       1  UNL1        0.0230
    124 H         -10.2981    8.0836   -6.2170 H       1  UNL1        0.0230
    125 H          -9.5023    8.4018   -7.7680 H       1  UNL1        0.0230
    126 H         -10.4290    6.9085   -7.5400 H       1  UNL1        0.0230
@<TRIPOS>BOND
     1     1    13    1
     2     1    14    1
     3    14     2    1
     4     2    16    1
     5    10     3    1
     6     3    60    1
     7    11     4    1
     8     4    61    1
     9    12     5    1
    10     5    62    1
    11     6    15    1
    12     6    83    1
    13     7   110    1
    14     8    29    2
    15     9    29   am
    16     9    64    1
    17    10    11    1
    18    10    12    1
    19    10    50    1
    20    11    13    1
    21    11    51    1
    22    12    14    1
    23    12    52    1
    24    13    15    1
    25    13    53    1
    26    14    54    1
    27    15    55    1
    28    15    56    1
    29    16    57    1
    30    16    58    1
    31    17    59    1
    32    18    28    1
    33    18    63    1
    34    19    20    1
    35    19    21    1
    36    19    65    1
    37    19    66    1
    38    20    22    1
    39    20    67    1
    40    20    68    1
    41    21    23    1
    42    21    69    1
    43    21    70    1
    44    22    24    1
    45    22    71    1
    46    22    72    1
    47    23    25    1
    48    23    73    1
    49    23    74    1
    50    24    26    1
    51    24    75    1
    52    24    76    1
    53    25    27    1
    54    25    77    1
    55    25    78    1
    56    26    30    1
    57    26    79    1
    58    26    80    1
    59    27    29    1
    60    27    81    1
    61    27    82    1
    62    28    40    2
    63    28    84    1
    64    30    37    1
    65    30    85    1
    66    30    86    1
    67    31    32    1
    68    31    33    1
    69    31    87    1
    70    31    88    1
    71    32    34    1
    72    32    89    1
    73    32    90    1
    74    33    35    1
    75    33    91    1
    76    33    92    1
    77    34    36    1
    78    34    93    1
    79    34    94    1
    80    35    38    1
    81    35    95    1
    82    35    96    1
    83    36    39    1
    84    36    97    1
    85    36    98    1
    86    37    42    1
    87    37    99    1
    88    37   100    1
    89    38    41    1
    90    38   101    1
    91    38   102    1
    92    39    40    1
    93    39   103    1
    94    39   104    1
    95    40   105    1
    96    41    43    1
    97    41   106    1
    98    41   107    1
    99    42    44    1
   100    42   108    1
   101    42   109    1
   102    43    45    1
   103    43   111    1
   104    43   112    1
   105    44    46    1
   106    44   113    1
   107    44   114    1
   108    45    47    1
   109    45   115    1
   110    45   116    1
   111    46    48    1
   112    46   117    1
   113    46   118    1
   114    47    49    1
   115    47   119    1
   116    47   120    1
   117    48   121    1
   118    48   122    1
   119    48   123    1
   120    49   124    1
   121    49   125    1
   122    49   126    1
   123    17    16    1
   124    17     9    1
   125    18    17    1
   126    18     7    1
