@<TRIPOS>MOLECULE
glucosylceramide_c16
 126 126 0 0 0
SMALL
GASTEIGER

@<TRIPOS>ATOM
      1 O           5.1150    1.1222    1.3907 O.3     1  UNL1       -0.3405
      2 O           3.1592    2.2608    2.1686 O.3     1  UNL1       -0.3468
      3 O           6.8808    4.6269   -0.1026 O.3     1  UNL1       -0.3864
      4 O           7.8111    2.0428   -0.9865 O.3     1  UNL1       -0.3865
      5 O           4.1667    4.6929    0.9066 O.3     1  UNL1       -0.3841
      6 O           5.9925   -1.4280    0.5904 O.3     1  UNL1       -0.3924
      7 O           0.7394    1.3206    2.8488 O.3     1  UNL1       -0.3859
      8 O           3.2205    4.3779    6.2058 O.2     1  UNL1       -0.2758
      9 N           2.7849    2.1457    5.9160 N.am    1  UNL1       -0.3075
     10 C           6.0500    3.4611   -0.0279 C.3     1  UNL1        0.1141
     11 C           6.9221    2.2041    0.1220 C.3     1  UNL1        0.1119
     12 C           5.0212    3.5636    1.1176 C.3     1  UNL1        0.1341
     13 C           6.0191    0.9718    0.2789 C.3     1  UNL1        0.1130
     14 C           4.2261    2.2356    1.2127 C.3     1  UNL1        0.1880
     15 C           6.8540   -0.2956    0.4918 C.3     1  UNL1        0.0730
     16 C           3.5088    2.2914    3.5468 C.3     1  UNL1        0.0718
     17 C           2.2725    2.2876    4.5278 C.3     1  UNL1        0.0759
     18 C           1.2266    1.1685    4.1888 C.3     1  UNL1        0.0938
     19 C           1.7796    1.0484   11.2692 C.3     1  UNL1       -0.0531
     20 C           0.4212    1.3203   10.6229 C.3     1  UNL1       -0.0531
     21 C           2.7783    0.3285   10.3573 C.3     1  UNL1       -0.0530
     22 C          -0.5419    1.9650   11.6237 C.3     1  UNL1       -0.0531
     23 C           3.1106    0.9641    8.9940 C.3     1  UNL1       -0.0526
     24 C          -1.8792    2.3055   10.9688 C.3     1  UNL1       -0.0531
     25 C           3.7548    2.3539    9.0392 C.3     1  UNL1       -0.0448
     26 C          -2.8183    2.9876   11.9627 C.3     1  UNL1       -0.0531
     27 C           4.3247    2.8428    7.7009 C.3     1  UNL1        0.0240
     28 C          -0.0511    0.9901    4.9778 C.2     1  UNL1       -0.0580
     29 C           3.3588    3.2162    6.5743 C.2     1  UNL1        0.2134
     30 C          -4.1542    3.3292   11.3070 C.3     1  UNL1       -0.0531
     31 C          -3.3313    5.2804    3.6006 C.3     1  UNL1       -0.0531
     32 C          -3.5253    4.6423    4.9740 C.3     1  UNL1       -0.0530
     33 C          -4.0642    6.6097    3.5128 C.3     1  UNL1       -0.0531
     34 C          -2.7580    3.3297    5.0345 C.3     1  UNL1       -0.0528
     35 C          -3.8803    7.2392    2.1374 C.3     1  UNL1       -0.0531
     36 C          -2.8440    2.6617    6.4079 C.3     1  UNL1       -0.0496
     37 C          -5.0869    4.0250   12.2950 C.3     1  UNL1       -0.0531
     38 C          -4.6274    8.5653    2.0595 C.3     1  UNL1       -0.0531
     39 C          -2.0140    1.3710    6.4619 C.3     1  UNL1       -0.0347
     40 C          -0.5638    1.5992    6.0565 C.2     1  UNL1       -0.0855
     41 C          -4.4547    9.2058    0.6876 C.3     1  UNL1       -0.0531
     42 C          -6.4240    4.3663   11.6406 C.3     1  UNL1       -0.0531
     43 C          -5.2002   10.5351    0.6116 C.3     1  UNL1       -0.0531
     44 C          -7.3556    5.0529   12.6366 C.3     1  UNL1       -0.0533
     45 C          -5.0211   11.1764   -0.7616 C.3     1  UNL1       -0.0533
     46 C          -8.6920    5.4124   11.9923 C.3     1  UNL1       -0.0559
     47 C          -5.7697   12.5030   -0.8546 C.3     1  UNL1       -0.0559
     48 C          -9.6142    6.0915   12.9912 C.3     1  UNL1       -0.0653
     49 C          -5.5901   13.1371   -2.2235 C.3     1  UNL1       -0.0653
     50 H           5.5283    3.4340   -0.9933 H       1  UNL1        0.0648
     51 H           7.5533    2.3203    1.0113 H       1  UNL1        0.0647
     52 H           5.5533    3.7556    2.0552 H       1  UNL1        0.0671
     53 H           5.4238    0.8195   -0.6371 H       1  UNL1        0.0647
     54 H           3.7051    2.0878    0.2573 H       1  UNL1        0.0937
     55 H           7.5436   -0.4715   -0.3424 H       1  UNL1        0.0584
     56 H           7.4404   -0.2359    1.4126 H       1  UNL1        0.0584
     57 H           4.1357    1.4209    3.7748 H       1  UNL1        0.0580
     58 H           4.1052    3.1891    3.7446 H       1  UNL1        0.0580
     59 H           1.7737    3.2633    4.4232 H       1  UNL1        0.0550
     60 H           7.2726    4.7862    0.7741 H       1  UNL1        0.2100
     61 H           7.3761    2.3613   -1.7975 H       1  UNL1        0.2100
     62 H           3.6559    4.5497    0.0920 H       1  UNL1        0.2101
     63 H           1.7520    0.2088    4.2200 H       1  UNL1        0.0657
     64 H           3.0295    1.2179    6.2115 H       1  UNL1        0.1492
     65 H           1.6186    0.4126   12.1524 H       1  UNL1        0.0265
     66 H           2.2134    1.9829   11.6416 H       1  UNL1        0.0265
     67 H           0.5456    1.9849    9.7615 H       1  UNL1        0.0265
     68 H          -0.0105    0.3815   10.2549 H       1  UNL1        0.0265
     69 H           2.3829   -0.6767   10.1603 H       1  UNL1        0.0265
     70 H           3.7067    0.1795   10.9235 H       1  UNL1        0.0265
     71 H          -0.7110    1.2855   12.4686 H       1  UNL1        0.0265
     72 H          -0.0922    2.8785   12.0315 H       1  UNL1        0.0265
     73 H           2.2036    0.9996    8.3847 H       1  UNL1        0.0265
     74 H           3.8043    0.2801    8.4883 H       1  UNL1        0.0265
     75 H          -1.7117    2.9678   10.1108 H       1  UNL1        0.0265
     76 H          -2.3479    1.3910   10.5857 H       1  UNL1        0.0265
     77 H           4.5982    2.3119    9.7459 H       1  UNL1        0.0270
     78 H           3.0477    3.0877    9.4381 H       1  UNL1        0.0270
     79 H          -2.9877    2.3301   12.8243 H       1  UNL1        0.0265
     80 H          -2.3504    3.9039   12.3433 H       1  UNL1        0.0265
     81 H           5.0433    2.1159    7.3014 H       1  UNL1        0.0358
     82 H           4.9112    3.7508    7.9037 H       1  UNL1        0.0358
     83 H           5.2938   -1.1553    1.2140 H       1  UNL1        0.2095
     84 H          -0.7019    0.2696    4.4804 H       1  UNL1        0.0595
     85 H          -3.9844    3.9794   10.4403 H       1  UNL1        0.0265
     86 H          -4.6276    2.4119   10.9364 H       1  UNL1        0.0265
     87 H          -2.2612    5.4375    3.4121 H       1  UNL1        0.0265
     88 H          -3.6968    4.5999    2.8214 H       1  UNL1        0.0265
     89 H          -4.5909    4.4679    5.1622 H       1  UNL1        0.0265
     90 H          -3.1607    5.3235    5.7525 H       1  UNL1        0.0265
     91 H          -5.1316    6.4549    3.7099 H       1  UNL1        0.0265
     92 H          -3.6858    7.2904    4.2851 H       1  UNL1        0.0265
     93 H          -1.7121    3.5416    4.7867 H       1  UNL1        0.0265
     94 H          -3.1384    2.6439    4.2675 H       1  UNL1        0.0265
     95 H          -2.8130    7.4004    1.9414 H       1  UNL1        0.0265
     96 H          -4.2515    6.5565    1.3631 H       1  UNL1        0.0265
     97 H          -3.8930    2.4273    6.6323 H       1  UNL1        0.0268
     98 H          -2.5011    3.3540    7.1860 H       1  UNL1        0.0268
     99 H          -5.2557    3.3758   13.1629 H       1  UNL1        0.0265
    100 H          -4.6134    4.9426   12.6654 H       1  UNL1        0.0265
    101 H          -5.6930    8.3996    2.2599 H       1  UNL1        0.0265
    102 H          -4.2536    9.2442    2.8357 H       1  UNL1        0.0265
    103 H          -2.4891    0.6426    5.7891 H       1  UNL1        0.0307
    104 H          -2.0654    0.9399    7.4671 H       1  UNL1        0.0307
    105 H          -0.0082    2.3527    6.6082 H       1  UNL1        0.0570
    106 H          -3.3889    9.3665    0.4874 H       1  UNL1        0.0265
    107 H          -4.8310    8.5254   -0.0863 H       1  UNL1        0.0265
    108 H          -6.2551    5.0224   10.7779 H       1  UNL1        0.0265
    109 H          -6.8953    3.4504   11.2638 H       1  UNL1        0.0265
    110 H           0.0124    1.9655    2.8845 H       1  UNL1        0.2103
    111 H          -6.2667   10.3717    0.8093 H       1  UNL1        0.0265
    112 H          -4.8268   11.2127    1.3891 H       1  UNL1        0.0265
    113 H          -7.5264    4.3914   13.4948 H       1  UNL1        0.0265
    114 H          -6.8764    5.9620   13.0202 H       1  UNL1        0.0265
    115 H          -3.9536   11.3404   -0.9532 H       1  UNL1        0.0265
    116 H          -5.3867   10.4915   -1.5364 H       1  UNL1        0.0265
    117 H          -8.5266    6.0809   11.1395 H       1  UNL1        0.0263
    118 H          -9.1775    4.5081   11.6074 H       1  UNL1        0.0263
    119 H          -6.8377   12.3420   -0.6672 H       1  UNL1        0.0263
    120 H          -5.4047   13.1927   -0.0847 H       1  UNL1        0.0263
    121 H          -9.1564    7.0028   13.3893 H       1  UNL1        0.0230
    122 H         -10.5585    6.3653   12.5116 H       1  UNL1        0.0230
    123 H          -9.8381    5.4253   13.8306 H       1  UNL1        0.0230
    124 H          -5.9617   12.4756   -3.0126 H       1  UNL1        0.0230
    125 H          -6.1423   14.0798   -2.2802 H       1  UNL1        0.0230
    126 H          -4.5341   13.3474   -2.4209 H       1  UNL1        0.0230
@<TRIPOS>BOND
     1     1    13    1
     2     1    14    1
     3    14     2    1
     4     2    16    1
     5    10     3    1
     6     3    60    1
     7    11     4    1
     8     4    61    1
     9    12     5    1
    10     5    62    1
    11     6    15    1
    12     6    83    1
    13     7   110    1
    14     8    29    2
    15     9    29   am
    16     9    64    1
    17    10    11    1
    18    10    12    1
    19    10    50    1
    20    11    13    1
    21    11    51    1
    22    12    14    1
    23    12    52    1
    24    13    15    1
    25    13    53    1
    26    14    54    1
    27    15    55    1
    28    15    56    1
    29    16    57    1
    30    16    58    1
    31    17    59    1
    32    18    28    1
    33    18    63    1
    34    19    20    1
    35    19    21    1
    36    19    65    1
    37    19    66    1
    38    20    22    1
    39    20    67    1
    40    20    68    1
    41    21    23    1
    42    21    69    1
    43    21    70    1
    44    22    24    1
    45    22    71    1
    46    22    72    1
    47    23    25    1
    48    23    73    1
    49    23    74    1
    50    24    26    1
    51    24    75    1
    52    24    76    1
    53    25    27    1
    54    25    77    1
    55    25    78    1
    56    26    30    1
    57    26    79    1
    58    26    80    1
    59    27    29    1
    60    27    81    1
    61    27    82    1
    62    28    40    2
    63    28    84    1
    64    30    37    1
    65    30    85    1
    66    30    86    1
    67    31    32    1
    68    31    33    1
    69    31    87    1
    70    31    88    1
    71    32    34    1
    72    32    89    1
    73    32    90    1
    74    33    35    1
    75    33    91    1
    76    33    92    1
    77    34    36    1
    78    34    93    1
    79    34    94    1
    80    35    38    1
    81    35    95    1
    82    35    96    1
    83    36    39    1
    84    36    97    1
    85    36    98    1
    86    37    42    1
    87    37    99    1
    88    37   100    1
    89    38    41    1
    90    38   101    1
    91    38   102    1
    92    39    40    1
    93    39   103    1
    94    39   104    1
    95    40   105    1
    96    41    43    1
    97    41   106    1
    98    41   107    1
    99    42    44    1
   100    42   108    1
   101    42   109    1
   102    43    45    1
   103    43   111    1
   104    43   112    1
   105    44    46    1
   106    44   113    1
   107    44   114    1
   108    45    47    1
   109    45   115    1
   110    45   116    1
   111    46    48    1
   112    46   117    1
   113    46   118    1
   114    47    49    1
   115    47   119    1
   116    47   120    1
   117    48   121    1
   118    48   122    1
   119    48   123    1
   120    49   124    1
   121    49   125    1
   122    49   126    1
   123    17    16    1
   124    17     9    1
   125    18    17    1
   126    18     7    1
