@<TRIPOS>MOLECULE
sphinganine
 60 59 0 0 0
SMALL
GASTEIGER

@<TRIPOS>ATOM
      1 O1          4.3913   -1.9457    3.4653 O.3     1  <1>        -0.3902
      2 O2          7.9166   -1.7767    3.9467 O.3     1  <1>        -0.3934
      3 N1          7.3496   -3.5592    1.8257 N.3     1  <1>        -0.3234
      4 C1          1.0327   -3.1589   -1.6624 C.3     1  <1>        -0.0531
      5 C2          1.8507   -2.8855   -0.3996 C.3     1  <1>        -0.0531
      6 C3          0.1689   -4.4130   -1.4864 C.3     1  <1>        -0.0531
      7 C4          2.7701   -1.6695   -0.5482 C.3     1  <1>        -0.0530
      8 C5         -0.6561   -4.7157   -2.7394 C.3     1  <1>        -0.0531
      9 C6          3.5730   -1.3664    0.7266 C.3     1  <1>        -0.0507
     10 C7         -1.5210   -5.9668   -2.5550 C.3     1  <1>        -0.0531
     11 C8          4.5454   -2.4881    1.1305 C.3     1  <1>        -0.0253
     12 C9         -2.3446   -6.2667   -3.8096 C.3     1  <1>        -0.0531
     13 C10         5.3355   -2.1476    2.4070 C.3     1  <1>         0.0725
     14 C11        -3.2133   -7.5176   -3.6305 C.3     1  <1>        -0.0531
     15 C12        -4.0351   -7.8155   -4.8887 C.3     1  <1>        -0.0531
     16 C13         6.3187   -3.2700    2.8490 C.3     1  <1>         0.0545
     17 C14        -4.9049   -9.0633   -4.7113 C.3     1  <1>        -0.0531
     18 C15        -5.7296   -9.3543   -5.9685 C.3     1  <1>        -0.0533
     19 C16         7.0347   -2.8797    4.1641 C.3     1  <1>         0.0618
     20 C17        -6.5936  -10.6061   -5.8003 C.3     1  <1>        -0.0559
     21 C18        -7.4123  -10.8899   -7.0508 C.3     1  <1>        -0.0653
     22 H1          0.3947   -2.2959   -1.8862 H       1  <1>         0.0265
     23 H2          1.7081   -3.2953   -2.5156 H       1  <1>         0.0265
     24 H3          2.4470   -3.7759   -0.1748 H       1  <1>         0.0265
     25 H4          1.1730   -2.7259    0.4491 H       1  <1>         0.0265
     26 H5          0.8130   -5.2707   -1.2579 H       1  <1>         0.0265
     27 H6         -0.5018   -4.2771   -0.6289 H       1  <1>         0.0265
     28 H7          2.1607   -0.7888   -0.7908 H       1  <1>         0.0265
     29 H8          3.4565   -1.8196   -1.3896 H       1  <1>         0.0265
     30 H9         -1.2964   -3.8570   -2.9716 H       1  <1>         0.0265
     31 H10         0.0173   -4.8589   -3.5932 H       1  <1>         0.0265
     32 H11         2.8706   -1.1600    1.5411 H       1  <1>         0.0266
     33 H12         4.1435   -0.4429    0.5608 H       1  <1>         0.0266
     34 H13        -0.8833   -6.8228   -2.3213 H       1  <1>         0.0265
     35 H14        -2.1946   -5.8227   -1.7000 H       1  <1>         0.0265
     36 H15         5.2287   -2.6840    0.2969 H       1  <1>         0.0291
     37 H16         3.9759   -3.4051    1.3178 H       1  <1>         0.0291
     38 H17        -2.9827   -5.4087   -4.0456 H       1  <1>         0.0265
     39 H18        -1.6691   -6.4124   -4.6638 H       1  <1>         0.0265
     40 H19         5.8881   -1.2112    2.2557 H       1  <1>         0.0609
     41 H20        -2.5740   -8.3771   -3.3958 H       1  <1>         0.0265
     42 H21        -3.8884   -7.3736   -2.7777 H       1  <1>         0.0265
     43 H22        -4.6719   -6.9546   -5.1230 H       1  <1>         0.0265
     44 H23        -3.3591   -7.9586   -5.7405 H       1  <1>         0.0265
     45 H24         5.7491   -4.1860    3.0504 H       1  <1>         0.0506
     46 H25        -4.2671   -9.9257   -4.4833 H       1  <1>         0.0265
     47 H26        -5.5776   -8.9227   -3.8567 H       1  <1>         0.0265
     48 H27        -6.3711   -8.4937   -6.1930 H       1  <1>         0.0265
     49 H28        -5.0572   -9.4875   -6.8247 H       1  <1>         0.0265
     50 H29         6.3269   -2.6127    4.9544 H       1  <1>         0.0573
     51 H30         7.6389   -3.7171    4.5316 H       1  <1>         0.0573
     52 H31        -5.9568  -11.4707   -5.5844 H       1  <1>         0.0263
     53 H32        -7.2709  -10.4807   -4.9483 H       1  <1>         0.0263
     54 H33         4.2285   -0.9861    3.5189 H       1  <1>         0.2098
     55 H34         8.0876   -4.1285    2.2454 H       1  <1>         0.1186
     56 H35         6.9330   -4.1603    1.1116 H       1  <1>         0.1186
     57 H36        -6.7638  -11.0355   -7.9206 H       1  <1>         0.0230
     58 H37        -8.0085  -11.7984   -6.9173 H       1  <1>         0.0230
     59 H38        -8.0975  -10.0641   -7.2679 H       1  <1>         0.0230
     60 H39         8.2682   -1.9043    3.0442 H       1  <1>         0.2095
@<TRIPOS>BOND
     1     1    54    1
     2     2    19    1
     3     2    60    1
     4    16     3    1
     5     3    55    1
     6     3    56    1
     7     4     5    1
     8     4     6    1
     9     4    22    1
    10     4    23    1
    11     5     7    1
    12     5    24    1
    13     5    25    1
    14     6     8    1
    15     6    26    1
    16     6    27    1
    17     7     9    1
    18     7    28    1
    19     7    29    1
    20     8    10    1
    21     8    30    1
    22     8    31    1
    23     9    11    1
    24     9    32    1
    25     9    33    1
    26    10    12    1
    27    10    34    1
    28    10    35    1
    29    11    36    1
    30    11    37    1
    31    12    14    1
    32    12    38    1
    33    12    39    1
    34    13    16    1
    35    13    40    1
    36    14    15    1
    37    14    41    1
    38    14    42    1
    39    15    17    1
    40    15    43    1
    41    15    44    1
    42    16    19    1
    43    16    45    1
    44    17    18    1
    45    17    46    1
    46    17    47    1
    47    18    20    1
    48    18    48    1
    49    18    49    1
    50    19    50    1
    51    19    51    1
    52    20    21    1
    53    20    52    1
    54    20    53    1
    55    21    57    1
    56    21    58    1
    57    21    59    1
    58    13    11    1
    59    13     1    1
