@<TRIPOS>MOLECULE
sphingomyelin_c16
 127 126 0 0 0
SMALL
GASTEIGER

@<TRIPOS>ATOM
      1 P           0.9329   -3.1990    2.8215 P.3     1  UNL1        0.2128
      2 O          -0.6067   -3.5703    2.4010 O.3     1  UNL1       -0.3221
      3 O           1.0719   -1.7011    2.1960 O.3     1  UNL1       -0.3255
      4 O           5.2746   -1.9823    0.5207 O.3     1  UNL1       -0.3859
      5 O           6.2869    0.7993    3.5740 O.2     1  UNL1       -0.2758
      6 O           1.0005   -3.1442    4.3193 O.co2   1  UNL1       -0.4373
      7 O           1.8234   -4.0895    1.9947 O.2     1  UNL1       -0.5172
      8 N          -3.2675   -4.6585    1.4772 N.4     1  UNL1        0.2385
      9 N           4.7652   -0.6303    2.8467 N.am    1  UNL1       -0.3074
     10 C           7.8588    3.9437    0.4601 C.3     1  UNL1       -0.0531
     11 C           7.7090    5.1248    1.4254 C.3     1  UNL1       -0.0531
     12 C           9.3008    3.4908    0.2452 C.3     1  UNL1       -0.0531
     13 C           6.2527    5.5538    1.6099 C.3     1  UNL1       -0.0531
     14 C           9.9504    2.9898    1.5516 C.3     1  UNL1       -0.0531
     15 C           5.2682    4.4721    2.1125 C.3     1  UNL1       -0.0530
     16 C          11.3623    2.4487    1.3214 C.3     1  UNL1       -0.0531
     17 C           0.2458    0.6453   -5.4334 C.3     1  UNL1       -0.0531
     18 C           5.6087    3.8967    3.4908 C.3     1  UNL1       -0.0526
     19 C           0.2789    1.2597   -4.0323 C.3     1  UNL1       -0.0531
     20 C          -0.6982   -0.5537   -5.4800 C.3     1  UNL1       -0.0531
     21 C          11.9726    1.9985    2.6488 C.3     1  UNL1       -0.0531
     22 C           0.7944    0.2967   -2.9572 C.3     1  UNL1       -0.0530
     23 C          -0.6926   -1.2345   -6.8359 C.3     1  UNL1       -0.0531
     24 C           4.5306    2.9872    4.1196 C.3     1  UNL1       -0.0448
     25 C           2.2083   -0.2157   -3.2378 C.3     1  UNL1       -0.0528
     26 C          -1.6855   -2.3932   -6.8337 C.3     1  UNL1       -0.0531
     27 C          13.3936    1.4746    2.4584 C.3     1  UNL1       -0.0531
     28 C          -2.5857   -5.0228    2.8271 C.3     1  UNL1       -0.0064
     29 C           3.2788    0.8861   -3.2162 C.3     1  UNL1       -0.0496
     30 C          -1.7198   -3.0724   -8.1924 C.3     1  UNL1       -0.0531
     31 C           3.6060   -1.2651    2.1316 C.3     1  UNL1        0.0762
     32 C           4.0752    1.6954    3.4139 C.3     1  UNL1        0.0240
     33 C          13.9875    1.0134    3.7883 C.3     1  UNL1       -0.0533
     34 C           3.9313   -1.4300    0.6045 C.3     1  UNL1        0.0938
     35 C          -3.9984   -3.3358    1.5607 C.3     1  UNL1       -0.0417
     36 C          -2.2137   -4.5697    0.3721 C.3     1  UNL1       -0.0417
     37 C          -4.2654   -5.7557    1.1166 C.3     1  UNL1       -0.0417
     38 C           3.3852    1.6647   -1.8793 C.3     1  UNL1       -0.0347
     39 C          -2.7135   -4.2296   -8.2023 C.3     1  UNL1       -0.0533
     40 C          -1.5237   -4.0476    3.3823 C.3     1  UNL1        0.0947
     41 C           2.1724   -0.8667    2.6036 C.3     1  UNL1        0.0759
     42 C           5.1192    0.6054    3.2661 C.2     1  UNL1        0.2134
     43 C          15.4021    0.4670    3.6079 C.3     1  UNL1       -0.0559
     44 C           3.9300   -0.3970   -0.4990 C.2     1  UNL1       -0.0580
     45 C           3.5647    0.8901   -0.5855 C.2     1  UNL1       -0.0855
     46 C          -2.7550   -4.8966   -9.5735 C.3     1  UNL1       -0.0559
     47 C          15.9915    0.0248    4.9374 C.3     1  UNL1       -0.0653
     48 C          -3.7502   -6.0434   -9.5926 C.3     1  UNL1       -0.0653
     49 H           7.2788    3.0892    0.8203 H       1  UNL1        0.0265
     50 H           7.4355    4.2256   -0.5236 H       1  UNL1        0.0265
     51 H           8.2812    5.9752    1.0323 H       1  UNL1        0.0265
     52 H           8.1416    4.8917    2.4020 H       1  UNL1        0.0265
     53 H           9.3033    2.6665   -0.4790 H       1  UNL1        0.0265
     54 H           9.9044    4.2926   -0.1845 H       1  UNL1        0.0265
     55 H           5.8841    5.9299    0.6461 H       1  UNL1        0.0265
     56 H           6.2355    6.4095    2.2959 H       1  UNL1        0.0265
     57 H          10.0078    3.8082    2.2722 H       1  UNL1        0.0265
     58 H           9.3245    2.2084    1.9906 H       1  UNL1        0.0265
     59 H           5.1981    3.6641    1.3795 H       1  UNL1        0.0265
     60 H           4.2776    4.9388    2.1589 H       1  UNL1        0.0265
     61 H          11.3281    1.6066    0.6202 H       1  UNL1        0.0265
     62 H          11.9870    3.2263    0.8702 H       1  UNL1        0.0265
     63 H          -0.0877    1.4043   -6.1505 H       1  UNL1        0.0265
     64 H           1.2504    0.3513   -5.7548 H       1  UNL1        0.0265
     65 H           5.7463    4.7416    4.1803 H       1  UNL1        0.0265
     66 H           6.5696    3.3734    3.4611 H       1  UNL1        0.0265
     67 H          -0.7299    1.5890   -3.7570 H       1  UNL1        0.0265
     68 H           0.8971    2.1642   -4.0522 H       1  UNL1        0.0265
     69 H          -0.4078   -1.3040   -4.7354 H       1  UNL1        0.0265
     70 H          -1.7108   -0.2220   -5.2245 H       1  UNL1        0.0265
     71 H          11.9847    2.8419    3.3522 H       1  UNL1        0.0265
     72 H          11.3462    1.2182    3.0949 H       1  UNL1        0.0265
     73 H           0.1203   -0.5613   -2.8605 H       1  UNL1        0.0265
     74 H           0.7537    0.7894   -1.9795 H       1  UNL1        0.0265
     75 H          -0.9572   -0.5113   -7.6213 H       1  UNL1        0.0265
     76 H           0.3129   -1.6094   -7.0585 H       1  UNL1        0.0265
     77 H           3.6323    3.6009    4.2747 H       1  UNL1        0.0270
     78 H           4.8846    2.7182    5.1241 H       1  UNL1        0.0270
     79 H           2.2471   -0.7290   -4.2051 H       1  UNL1        0.0265
     80 H           2.4332   -1.0025   -2.5143 H       1  UNL1        0.0265
     81 H          -1.4044   -3.1193   -6.0582 H       1  UNL1        0.0265
     82 H          -2.6855   -2.0218   -6.5739 H       1  UNL1        0.0265
     83 H          13.3844    0.6396    1.7480 H       1  UNL1        0.0265
     84 H          14.0219    2.2632    2.0272 H       1  UNL1        0.0265
     85 H          -2.1423   -6.0242    2.6715 H       1  UNL1        0.0838
     86 H          -3.3990   -5.1467    3.5567 H       1  UNL1        0.0838
     87 H           3.0658    1.6020   -4.0164 H       1  UNL1        0.0268
     88 H           4.2505    0.4506   -3.4739 H       1  UNL1        0.0268
     89 H          -1.9981   -2.3387   -8.9589 H       1  UNL1        0.0265
     90 H          -0.7179   -3.4417   -8.4440 H       1  UNL1        0.0265
     91 H           3.6940   -2.2982    2.4993 H       1  UNL1        0.0550
     92 H           3.6414    1.9220    2.4361 H       1  UNL1        0.0358
     93 H           3.2831    1.2696    4.0450 H       1  UNL1        0.0358
     94 H          14.0040    1.8520    4.4951 H       1  UNL1        0.0265
     95 H          13.3485    0.2359    4.2249 H       1  UNL1        0.0265
     96 H           3.2736   -2.2183    0.2263 H       1  UNL1        0.0657
     97 H          -3.3103   -2.5599    1.8979 H       1  UNL1        0.0778
     98 H          -4.3738   -3.0920    0.5596 H       1  UNL1        0.0778
     99 H          -4.8393   -3.4407    2.2539 H       1  UNL1        0.0778
    100 H          -1.5743   -5.4550    0.4283 H       1  UNL1        0.0778
    101 H          -2.7333   -4.5313   -0.5894 H       1  UNL1        0.0778
    102 H          -1.6530   -3.6429    0.4798 H       1  UNL1        0.0778
    103 H          -3.7319   -6.7069    1.0266 H       1  UNL1        0.0778
    104 H          -5.0211   -5.8177    1.9073 H       1  UNL1        0.0778
    105 H          -4.7449   -5.4982    0.1661 H       1  UNL1        0.0778
    106 H           2.4567    2.2433   -1.7739 H       1  UNL1        0.0307
    107 H           4.1777    2.4186   -1.9812 H       1  UNL1        0.0307
    108 H          -2.4316   -4.9652   -7.4389 H       1  UNL1        0.0265
    109 H          -3.7121   -3.8588   -7.9405 H       1  UNL1        0.0265
    110 H          -1.0026   -4.5712    4.1893 H       1  UNL1        0.0618
    111 H          -2.0255   -3.1844    3.8180 H       1  UNL1        0.0618
    112 H           5.6044   -1.1918    2.7603 H       1  UNL1        0.1492
    113 H           1.9351    0.1444    2.2626 H       1  UNL1        0.0584
    114 H           2.1642   -0.8346    3.6988 H       1  UNL1        0.0584
    115 H          15.3859   -0.3847    2.9181 H       1  UNL1        0.0263
    116 H          16.0473    1.2335    3.1631 H       1  UNL1        0.0263
    117 H           4.2769   -0.8570   -1.4259 H       1  UNL1        0.0595
    118 H           3.2815    1.4322    0.3119 H       1  UNL1        0.0570
    119 H          -3.0344   -4.1601  -10.3361 H       1  UNL1        0.0263
    120 H          -1.7593   -5.2731   -9.8361 H       1  UNL1        0.0263
    121 H          15.3431   -0.7061    5.4313 H       1  UNL1        0.0230
    122 H          16.9716   -0.4370    4.7845 H       1  UNL1        0.0230
    123 H          16.1187    0.8795    5.6099 H       1  UNL1        0.0230
    124 H          -4.7565   -5.6904   -9.3450 H       1  UNL1        0.0230
    125 H          -3.7831   -6.5003  -10.5860 H       1  UNL1        0.0230
    126 H          -3.4698   -6.8155   -8.8697 H       1  UNL1        0.0230
    127 H           5.2303   -2.8590    0.9479 H       1  UNL1        0.2103
@<TRIPOS>UNITY_ATOM_ATTR
6 1
charge -1
8 1
charge 1
@<TRIPOS>BOND
     1     1     2    1
     2     1     3    1
     3     1     6    1
     4     1     7    2
     5     2    40    1
     6     3    41    1
     7     4   127    1
     8     5    42    2
     9     8    28    1
    10     8    35    1
    11     8    36    1
    12     8    37    1
    13     9    42   am
    14     9   112    1
    15    10    11    1
    16    10    12    1
    17    10    49    1
    18    10    50    1
    19    11    13    1
    20    11    51    1
    21    11    52    1
    22    12    14    1
    23    12    53    1
    24    12    54    1
    25    13    15    1
    26    13    55    1
    27    13    56    1
    28    14    16    1
    29    14    57    1
    30    14    58    1
    31    15    18    1
    32    15    59    1
    33    15    60    1
    34    16    21    1
    35    16    61    1
    36    16    62    1
    37    17    19    1
    38    17    20    1
    39    17    63    1
    40    17    64    1
    41    18    24    1
    42    18    65    1
    43    18    66    1
    44    19    22    1
    45    19    67    1
    46    19    68    1
    47    20    23    1
    48    20    69    1
    49    20    70    1
    50    21    27    1
    51    21    71    1
    52    21    72    1
    53    22    25    1
    54    22    73    1
    55    22    74    1
    56    23    26    1
    57    23    75    1
    58    23    76    1
    59    24    32    1
    60    24    77    1
    61    24    78    1
    62    25    29    1
    63    25    79    1
    64    25    80    1
    65    26    30    1
    66    26    81    1
    67    26    82    1
    68    27    33    1
    69    27    83    1
    70    27    84    1
    71    28    40    1
    72    28    85    1
    73    28    86    1
    74    29    38    1
    75    29    87    1
    76    29    88    1
    77    30    39    1
    78    30    89    1
    79    30    90    1
    80    31    41    1
    81    31    91    1
    82    32    42    1
    83    32    92    1
    84    32    93    1
    85    33    43    1
    86    33    94    1
    87    33    95    1
    88    34    96    1
    89    35    97    1
    90    35    98    1
    91    35    99    1
    92    36   100    1
    93    36   101    1
    94    36   102    1
    95    37   103    1
    96    37   104    1
    97    37   105    1
    98    38    45    1
    99    38   106    1
   100    38   107    1
   101    39    46    1
   102    39   108    1
   103    39   109    1
   104    40   110    1
   105    40   111    1
   106    41   113    1
   107    41   114    1
   108    43    47    1
   109    43   115    1
   110    43   116    1
   111    44    45    2
   112    44   117    1
   113    45   118    1
   114    46    48    1
   115    46   119    1
   116    46   120    1
   117    47   121    1
   118    47   122    1
   119    47   123    1
   120    48   124    1
   121    48   125    1
   122    48   126    1
   123    31    34    1
   124    31     9    1
   125    34    44    1
   126    34     4    1
