@<TRIPOS>MOLECULE
sphingosine_1_phosphate
 63 62 0 0 0
SMALL
GASTEIGER

@<TRIPOS>ATOM
      1 P         -10.4289    0.5067    3.5532 P.3     1  UNL1        0.4724
      2 O          -7.8829   -3.0166    3.3111 O.3     1  UNL1       -0.3861
      3 O          -9.2409   -0.5197    4.0752 O.3     1  UNL1       -0.2851
      4 O         -11.7605   -0.3605    3.9374 O.3     1  UNL1       -0.3026
      5 O         -10.3812   -0.4359    2.1033 O.3     1  UNL1       -0.3026
      6 O         -10.4717    1.3504    4.8508 O.2     1  UNL1       -0.2275
      7 N          -5.4826   -0.2878    4.3005 N.3     1  UNL1       -0.3231
      8 C           1.0615   -6.1631    5.2699 C.3     1  UNL1       -0.0531
      9 C           2.3448   -6.8596    5.7316 C.3     1  UNL1       -0.0531
     10 C          -0.1040   -7.1449    5.1247 C.3     1  UNL1       -0.0531
     11 C           3.5055   -5.8648    5.8381 C.3     1  UNL1       -0.0531
     12 C          -1.4217   -6.4679    4.7169 C.3     1  UNL1       -0.0530
     13 C           4.7968   -6.5536    6.2846 C.3     1  UNL1       -0.0531
     14 C          -1.3625   -5.7877    3.3428 C.3     1  UNL1       -0.0528
     15 C           5.9575   -5.5605    6.3913 C.3     1  UNL1       -0.0531
     16 C          -2.6951   -5.1756    2.8840 C.3     1  UNL1       -0.0496
     17 C           7.2441   -6.2559    6.8441 C.3     1  UNL1       -0.0533
     18 C          -3.2101   -4.0710    3.8049 C.3     1  UNL1       -0.0347
     19 C           8.4079   -5.2705    6.9473 C.3     1  UNL1       -0.0559
     20 C          -4.4017   -3.3447    3.2371 C.2     1  UNL1       -0.0855
     21 C          -6.6710   -2.2761    3.3673 C.3     1  UNL1        0.0906
     22 C          -6.7872   -1.0063    4.2784 C.3     1  UNL1        0.0590
     23 C          -5.5987   -3.2177    3.8523 C.2     1  UNL1       -0.0583
     24 C           9.6866   -5.9623    7.3960 C.3     1  UNL1       -0.0653
     25 C          -7.9150   -0.0392    3.8322 C.3     1  UNL1        0.0769
     26 H           1.2593   -5.6708    4.3126 H       1  UNL1        0.0265
     27 H           0.7918   -5.3794    5.9893 H       1  UNL1        0.0265
     28 H           2.1775   -7.3378    6.7042 H       1  UNL1        0.0265
     29 H           2.6065   -7.6524    5.0203 H       1  UNL1        0.0265
     30 H          -0.2642   -7.6562    6.0832 H       1  UNL1        0.0265
     31 H           0.1518   -7.9212    4.3922 H       1  UNL1        0.0265
     32 H           3.6656   -5.3833    4.8658 H       1  UNL1        0.0265
     33 H           3.2454   -5.0732    6.5511 H       1  UNL1        0.0265
     34 H          -1.6901   -5.7384    5.4877 H       1  UNL1        0.0265
     35 H          -2.2129   -7.2256    4.7058 H       1  UNL1        0.0265
     36 H           4.6370   -7.0368    7.2563 H       1  UNL1        0.0265
     37 H           5.0563   -7.3436    5.5693 H       1  UNL1        0.0265
     38 H          -1.0413   -6.5272    2.5946 H       1  UNL1        0.0265
     39 H          -0.6019   -4.9985    3.3490 H       1  UNL1        0.0265
     40 H           6.1219   -5.0812    5.4191 H       1  UNL1        0.0265
     41 H           5.6991   -4.7678    7.1038 H       1  UNL1        0.0265
     42 H          -3.4449   -5.9673    2.7882 H       1  UNL1        0.0268
     43 H          -2.5383   -4.7669    1.8763 H       1  UNL1        0.0268
     44 H           7.0803   -6.7332    7.8180 H       1  UNL1        0.0265
     45 H           7.5001   -7.0516    6.1338 H       1  UNL1        0.0265
     46 H          -2.4164   -3.3278    3.9480 H       1  UNL1        0.0307
     47 H          -3.4448   -4.4770    4.7967 H       1  UNL1        0.0307
     48 H           8.5806   -4.7945    5.9748 H       1  UNL1        0.0263
     49 H           8.1621   -4.4742    7.6593 H       1  UNL1        0.0263
     50 H          -4.2185   -2.7815    2.3303 H       1  UNL1        0.0570
     51 H          -6.4601   -1.9463    2.3410 H       1  UNL1        0.0654
     52 H          -7.0168   -1.3399    5.2989 H       1  UNL1        0.0510
     53 H          -5.7866   -3.7234    4.7900 H       1  UNL1        0.0595
     54 H           9.9696   -6.7563    6.6975 H       1  UNL1        0.0230
     55 H          10.5108   -5.2434    7.4445 H       1  UNL1        0.0230
     56 H           9.5644   -6.4059    8.3892 H       1  UNL1        0.0230
     57 H          -7.8078    0.1902    2.7654 H       1  UNL1        0.0582
     58 H          -7.8098    0.9024    4.3844 H       1  UNL1        0.0582
     59 H          -5.4826    0.4297    5.0235 H       1  UNL1        0.1186
     60 H          -5.2982    0.1722    3.4093 H       1  UNL1        0.1186
     61 H          -7.7792   -3.6466    2.5795 H       1  UNL1        0.2103
     62 H         -11.8683   -0.2525    4.9048 H       1  UNL1        0.2220
     63 H         -10.5913   -1.3394    2.4157 H       1  UNL1        0.2220
@<TRIPOS>BOND
     1     1     3    1
     2     1     4    1
     3     1     5    1
     4     1     6    2
     5     2    61    1
     6     3    25    1
     7     4    62    1
     8     5    63    1
     9     7    59    1
    10     7    60    1
    11     8     9    1
    12     8    10    1
    13     8    26    1
    14     8    27    1
    15     9    11    1
    16     9    28    1
    17     9    29    1
    18    10    12    1
    19    10    30    1
    20    10    31    1
    21    11    13    1
    22    11    32    1
    23    11    33    1
    24    12    14    1
    25    12    34    1
    26    12    35    1
    27    13    15    1
    28    13    36    1
    29    13    37    1
    30    14    16    1
    31    14    38    1
    32    14    39    1
    33    15    17    1
    34    15    40    1
    35    15    41    1
    36    16    18    1
    37    16    42    1
    38    16    43    1
    39    17    19    1
    40    17    44    1
    41    17    45    1
    42    18    20    1
    43    18    46    1
    44    18    47    1
    45    19    24    1
    46    19    48    1
    47    19    49    1
    48    20    23    2
    49    20    50    1
    50    21    23    1
    51    21    51    1
    52    22    52    1
    53    23    53    1
    54    24    54    1
    55    24    55    1
    56    24    56    1
    57    25    57    1
    58    25    58    1
    59    21    22    1
    60    21     2    1
    61    22    25    1
    62    22     7    1
