@<TRIPOS>MOLECULE
sphingosine
 58 57 0 0 0
SMALL
GASTEIGER

@<TRIPOS>ATOM
      1 O          -6.7268    1.5015   -1.2866 O.3     1  UNL1       -0.3861
      2 O          -9.4130   -1.7284   -0.8186 O.3     1  UNL1       -0.3934
      3 N          -9.1581    0.9047    0.1618 N.3     1  UNL1       -0.3231
      4 C           3.1954    0.4046    0.2393 C.3     1  UNL1       -0.0531
      5 C           4.4842   -0.4186    0.2951 C.3     1  UNL1       -0.0531
      6 C           1.9631   -0.4814    0.4416 C.3     1  UNL1       -0.0531
      7 C           5.7462    0.4065    0.0273 C.3     1  UNL1       -0.0531
      8 C           0.6761    0.3458    0.4182 C.3     1  UNL1       -0.0530
      9 C           7.0278   -0.4295    0.0101 C.3     1  UNL1       -0.0531
     10 C          -0.5892   -0.4887    0.6388 C.3     1  UNL1       -0.0528
     11 C           8.2564    0.4457   -0.2485 C.3     1  UNL1       -0.0531
     12 C          -1.9126    0.2825    0.6035 C.3     1  UNL1       -0.0496
     13 C           9.5348   -0.3923   -0.3039 C.3     1  UNL1       -0.0533
     14 C          -3.1334   -0.5928    0.8923 C.3     1  UNL1       -0.0347
     15 C          10.7657    0.4856   -0.5287 C.3     1  UNL1       -0.0559
     16 C          -4.3988    0.2141    0.8511 C.2     1  UNL1       -0.0855
     17 C          -6.7151    0.8519   -0.0090 C.3     1  UNL1        0.0906
     18 CA         -7.9999    0.0007    0.1340 C.3     1  UNL1        0.0582
     19 C          -5.4482    0.0436    0.0318 C.2     1  UNL1       -0.0583
     20 C          12.0420   -0.3401   -0.5509 C.3     1  UNL1       -0.0653
     21 C          -8.1966   -1.0155   -0.9986 C.3     1  UNL1        0.0621
     22 H           3.1257    0.9131   -0.7299 H       1  UNL1        0.0265
     23 H           3.2263    1.1823    1.0118 H       1  UNL1        0.0265
     24 H           4.4260   -1.2265   -0.4451 H       1  UNL1        0.0265
     25 H           4.5688   -0.8967    1.2788 H       1  UNL1        0.0265
     26 H           1.9227   -1.2450   -0.3445 H       1  UNL1        0.0265
     27 H           2.0412   -1.0074    1.4006 H       1  UNL1        0.0265
     28 H           5.6400    0.9194   -0.9367 H       1  UNL1        0.0265
     29 H           5.8307    1.1874    0.7933 H       1  UNL1        0.0265
     30 H           0.7279    1.1217    1.1920 H       1  UNL1        0.0265
     31 H           0.5964    0.8646   -0.5451 H       1  UNL1        0.0265
     32 H           7.1398   -0.9490    0.9693 H       1  UNL1        0.0265
     33 H           6.9513   -1.1985   -0.7680 H       1  UNL1        0.0265
     34 H          -0.6260   -1.2796   -0.1212 H       1  UNL1        0.0265
     35 H          -0.5056   -0.9965    1.6082 H       1  UNL1        0.0265
     36 H           8.1322    0.9857   -1.1950 H       1  UNL1        0.0265
     37 H           8.3426    1.1985    0.5445 H       1  UNL1        0.0265
     38 H          -1.8650    1.0978    1.3371 H       1  UNL1        0.0268
     39 H          -2.0215    0.7539   -0.3818 H       1  UNL1        0.0268
     40 H           9.6484   -0.9492    0.6343 H       1  UNL1        0.0265
     41 H           9.4568   -1.1313   -1.1106 H       1  UNL1        0.0265
     42 H          -3.1786   -1.4137    0.1668 H       1  UNL1        0.0307
     43 H          -3.0392   -1.0469    1.8856 H       1  UNL1        0.0307
     44 H          10.6689    1.0264   -1.4773 H       1  UNL1        0.0263
     45 H          10.8386    1.2363    0.2669 H       1  UNL1        0.0263
     46 H          -4.4634    1.0110    1.5904 H       1  UNL1        0.0570
     47 H          -6.6954    1.6318    0.7625 H       1  UNL1        0.0654
     48 HA         -7.9810   -0.5351    1.0914 H       1  UNL1        0.0510
     49 H          -5.3637   -0.7485   -0.7102 H       1  UNL1        0.0595
     50 H          12.1852   -0.8670    0.3979 H       1  UNL1        0.0230
     51 H          12.0153   -1.0818   -1.3555 H       1  UNL1        0.0230
     52 H          12.9094    0.3073   -0.7141 H       1  UNL1        0.0230
     53 H1         -7.3870   -1.7509   -1.0100 H       1  UNL1        0.0573
     54 H2         -8.2342   -0.5255   -1.9777 H       1  UNL1        0.0573
     55 H1        -10.0095    0.3625    0.3036 H       1  UNL1        0.1186
     56 H2         -9.0816    1.5340    0.9599 H       1  UNL1        0.1186
     57 H          -5.9597    2.0988   -1.3213 H       1  UNL1        0.2103
     58 H          -9.4876   -2.3576   -1.5563 H       1  UNL1        0.2095
@<TRIPOS>BOND
     1     1    17    1
     2     1    57    1
     3     2    21    1
     4     2    58    1
     5     3    18    1
     6     3    55    1
     7     3    56    1
     8     4     5    1
     9     4     6    1
    10     4    22    1
    11     4    23    1
    12     5     7    1
    13     5    24    1
    14     5    25    1
    15     6     8    1
    16     6    26    1
    17     6    27    1
    18     7     9    1
    19     7    28    1
    20     7    29    1
    21     8    10    1
    22     8    30    1
    23     8    31    1
    24     9    11    1
    25     9    32    1
    26     9    33    1
    27    10    12    1
    28    10    34    1
    29    10    35    1
    30    11    13    1
    31    11    36    1
    32    11    37    1
    33    12    14    1
    34    12    38    1
    35    12    39    1
    36    13    15    1
    37    13    40    1
    38    13    41    1
    39    14    16    1
    40    14    42    1
    41    14    43    1
    42    15    20    1
    43    15    44    1
    44    15    45    1
    45    16    19    2
    46    16    46    1
    47    17    18    1
    48    17    19    1
    49    17    47    1
    50    18    21    1
    51    18    48    1
    52    19    49    1
    53    20    50    1
    54    20    51    1
    55    20    52    1
    56    21    53    1
    57    21    54    1
