@<TRIPOS>MOLECULE
1_monopalmitin
 61 60 0 0 0
SMALL
GASTEIGER

@<TRIPOS>ATOM
      1 O           2.9649   -1.0086   -0.3915 O.3     1  UNL1       -0.4619
      2 O           3.0012    1.1597    0.3418 O.2     1  UNL1       -0.2509
      3 O           5.5654   -1.7793    0.7659 O.3     1  UNL1       -0.3861
      4 O           7.0748   -1.4481   -1.6341 O.3     1  UNL1       -0.3923
      5 C          -3.3212   -2.6716    3.0814 C.3     1  UNL1       -0.0531
      6 C          -3.8438   -4.0858    3.2911 C.3     1  UNL1       -0.0531
      7 C          -3.8059   -2.0822    1.7568 C.3     1  UNL1       -0.0531
      8 C          -3.3299   -4.6529    4.6134 C.3     1  UNL1       -0.0531
      9 C          -3.8441   -6.0737    4.8299 C.3     1  UNL1       -0.0531
     10 C          -3.2841   -0.6605    1.5382 C.3     1  UNL1       -0.0531
     11 C          -3.3437   -6.6488    6.1540 C.3     1  UNL1       -0.0531
     12 C          -1.7601   -0.6227    1.4869 C.3     1  UNL1       -0.0530
     13 C          -3.8638   -8.0721    6.3666 C.3     1  UNL1       -0.0531
     14 C          -1.2368    0.7920    1.2562 C.3     1  UNL1       -0.0526
     15 C          -3.3671   -8.6544    7.6902 C.3     1  UNL1       -0.0533
     16 C           0.2882    0.8402    1.2475 C.3     1  UNL1       -0.0430
     17 C          -3.8841  -10.0765    7.9116 C.3     1  UNL1       -0.0559
     18 C           0.9007   -0.0329    0.1546 C.3     1  UNL1        0.0449
     19 C          -3.3781  -10.6484    9.2274 C.3     1  UNL1       -0.0653
     20 C           2.3935    0.1224    0.0990 C.2     1  UNL1        0.3072
     21 C           4.2328   -0.8171   -1.0359 C.3     1  UNL1        0.1204
     22 C           5.3955   -0.6161   -0.0563 C.3     1  UNL1        0.1121
     23 C           6.6991   -0.3451   -0.8139 C.3     1  UNL1        0.0733
     24 H          -2.2276   -2.7148    3.1045 H       1  UNL1        0.0265
     25 H          -3.6369   -2.0237    3.9079 H       1  UNL1        0.0265
     26 H          -4.9391   -4.0797    3.2826 H       1  UNL1        0.0265
     27 H          -3.5110   -4.7232    2.4631 H       1  UNL1        0.0265
     28 H          -4.9023   -2.0635    1.7386 H       1  UNL1        0.0265
     29 H          -3.4857   -2.7224    0.9253 H       1  UNL1        0.0265
     30 H          -2.2325   -4.6510    4.6156 H       1  UNL1        0.0265
     31 H          -3.6531   -4.0096    5.4413 H       1  UNL1        0.0265
     32 H          -4.9402   -6.0689    4.8185 H       1  UNL1        0.0265
     33 H          -3.5137   -6.7120    4.0015 H       1  UNL1        0.0265
     34 H          -3.6496   -0.0068    2.3379 H       1  UNL1        0.0265
     35 H          -3.6908   -0.2764    0.5955 H       1  UNL1        0.0265
     36 H          -2.2472   -6.6491    6.1637 H       1  UNL1        0.0265
     37 H          -3.6737   -6.0081    6.9811 H       1  UNL1        0.0265
     38 H          -1.4289   -1.2962    0.6898 H       1  UNL1        0.0265
     39 H          -1.3282   -0.9873    2.4234 H       1  UNL1        0.0265
     40 H          -4.9603   -8.0653    6.3555 H       1  UNL1        0.0265
     41 H          -3.5357   -8.7100    5.5371 H       1  UNL1        0.0265
     42 H          -1.6031    1.4439    2.0585 H       1  UNL1        0.0265
     43 H          -1.6328    1.1853    0.3146 H       1  UNL1        0.0265
     44 H          -2.2706   -8.6569    7.7007 H       1  UNL1        0.0265
     45 H          -3.6966   -8.0146    8.5180 H       1  UNL1        0.0265
     46 H           0.6776    0.5240    2.2232 H       1  UNL1        0.0270
     47 H           0.5993    1.8830    1.1135 H       1  UNL1        0.0270
     48 H          -4.9802  -10.0769    7.9171 H       1  UNL1        0.0263
     49 H          -3.5635  -10.7260    7.0888 H       1  UNL1        0.0263
     50 H           0.5062    0.2455   -0.8291 H       1  UNL1        0.0377
     51 H           0.6727   -1.0881    0.3348 H       1  UNL1        0.0377
     52 H          -3.6944  -10.0273   10.0715 H       1  UNL1        0.0230
     53 H          -3.7730  -11.6572    9.3817 H       1  UNL1        0.0230
     54 H          -2.2849  -10.7064    9.2346 H       1  UNL1        0.0230
     55 H           4.3936   -1.7120   -1.6461 H       1  UNL1        0.0724
     56 H           4.1431    0.0345   -1.7218 H       1  UNL1        0.0724
     57 H           5.2054    0.2222    0.6206 H       1  UNL1        0.0650
     58 H           6.5956    0.5346   -1.4569 H       1  UNL1        0.0584
     59 H           7.5184   -0.1663   -0.1129 H       1  UNL1        0.0584
     60 H           4.7672   -1.8333    1.3241 H       1  UNL1        0.2100
     61 H           7.3122   -2.1651   -1.0157 H       1  UNL1        0.2095
@<TRIPOS>BOND
     1     1    20    1
     2     1    21    1
     3     2    20    2
     4     3    22    1
     5     3    60    1
     6     4    23    1
     7     4    61    1
     8     5     6    1
     9     5     7    1
    10     5    24    1
    11     5    25    1
    12     6     8    1
    13     6    26    1
    14     6    27    1
    15     7    10    1
    16     7    28    1
    17     7    29    1
    18     8     9    1
    19     8    30    1
    20     8    31    1
    21     9    11    1
    22     9    32    1
    23     9    33    1
    24    10    12    1
    25    10    34    1
    26    10    35    1
    27    11    13    1
    28    11    36    1
    29    11    37    1
    30    12    14    1
    31    12    38    1
    32    12    39    1
    33    13    15    1
    34    13    40    1
    35    13    41    1
    36    14    16    1
    37    14    42    1
    38    14    43    1
    39    15    17    1
    40    15    44    1
    41    15    45    1
    42    16    18    1
    43    16    46    1
    44    16    47    1
    45    17    19    1
    46    17    48    1
    47    17    49    1
    48    18    20    1
    49    18    50    1
    50    18    51    1
    51    19    52    1
    52    19    53    1
    53    19    54    1
    54    21    22    1
    55    21    55    1
    56    21    56    1
    57    22    23    1
    58    22    57    1
    59    23    58    1
    60    23    59    1
