@<TRIPOS>MOLECULE
cardiolipin_tetralinoleoyl
 242 241 0 0 0
SMALL
GASTEIGER

@<TRIPOS>ATOM
      1 P           1.6888    2.7116    3.0395 P.3     1  UNL1        0.4751
      2 P           5.1896   -3.1422    4.5159 P.3     1  UNL1        0.4751
      3 O           2.9458    3.6993    7.6576 O.3     1  UNL1       -0.4555
      4 O           4.0998   -7.7485    5.9839 O.3     1  UNL1       -0.4555
      5 O           3.6453    6.2446    6.4351 O.3     1  UNL1       -0.4608
      6 O           6.9372   -7.3536    7.1278 O.3     1  UNL1       -0.4608
      7 O           0.7924    2.8993    4.4498 O.3     1  UNL1       -0.2828
      8 O           4.7484   -4.1494    5.6703 O.3     1  UNL1       -0.2828
      9 O           4.8040    2.5900    6.7908 O.2     1  UNL1       -0.2508
     10 O           5.6503   -9.3146    5.3752 O.2     1  UNL1       -0.2508
     11 O           4.3967    6.0781    4.2837 O.2     1  UNL1       -0.2509
     12 O           6.1880   -7.7195    9.2591 O.2     1  UNL1       -0.2509
     13 O           2.4105    1.2322    3.2667 O.3     1  UNL1       -0.2840
     14 O           3.8575   -2.6375    3.7470 O.3     1  UNL1       -0.2840
     15 O           2.8979    3.3602    4.0932 O.3     1  UNL1       -0.3025
     16 O           5.5725   -1.8383    5.3878 O.3     1  UNL1       -0.3025
     17 O           3.1826   -1.5746    0.9702 O.3     1  UNL1       -0.3872
     18 O           0.6066    2.1311    2.0965 O.2     1  UNL1       -0.2273
     19 O           6.3179   -3.5666    3.6384 O.2     1  UNL1       -0.2273
     20 C           5.2804   -0.4189    9.3207 C.3     1  UNL1       -0.0530
     21 C           0.5577   -9.8670    8.6063 C.3     1  UNL1       -0.0530
     22 C           3.9509    0.3395    9.5040 C.3     1  UNL1       -0.0526
     23 C           1.6575   -9.3850    7.6132 C.3     1  UNL1       -0.0526
     24 C           6.4183   -0.4085   10.3548 C.3     1  UNL1       -0.0528
     25 C           0.8590  -10.3729   10.0428 C.3     1  UNL1       -0.0528
     26 C           6.2628    7.3500    9.4016 C.3     1  UNL1       -0.0530
     27 C          12.0333   -7.6579    8.3300 C.3     1  UNL1       -0.0530
     28 C           5.6304    8.2521    8.3172 C.3     1  UNL1       -0.0526
     29 C          10.8041   -8.5061    8.5990 C.3     1  UNL1       -0.0526
     30 C           7.7774    7.4707    9.6999 C.3     1  UNL1       -0.0528
     31 C          12.2089   -6.5320    9.3418 C.3     1  UNL1       -0.0528
     32 C           3.8798    1.8188    9.8908 C.3     1  UNL1       -0.0430
     33 C           2.5885  -10.4386    7.0020 C.3     1  UNL1       -0.0430
     34 C           6.2587   -1.1237   11.7144 C.3     1  UNL1       -0.0496
     35 C           1.3430  -11.8252   10.1779 C.3     1  UNL1       -0.0496
     36 C           6.1213    8.2504    6.8627 C.3     1  UNL1       -0.0430
     37 C           9.5090   -7.7146    8.4259 C.3     1  UNL1       -0.0430
     38 C           8.2417    6.5661   10.9021 C.3     1  UNL1       -0.0496
     39 C          13.3829   -5.6508    8.9326 C.3     1  UNL1       -0.0496
     40 C           4.6179    2.9004    9.1336 C.3     1  UNL1        0.0450
     41 C           3.3611  -10.0309    5.7210 C.3     1  UNL1        0.0450
     42 C           6.2107   -2.6465   11.7405 C.3     1  UNL1       -0.0348
     43 C           1.4369  -12.3832   11.6233 C.3     1  UNL1       -0.0348
     44 C           5.9107    7.0659    5.9011 C.3     1  UNL1        0.0449
     45 C           8.3044   -8.6310    8.5791 C.3     1  UNL1        0.0449
     46 C           7.8862    5.0671   10.7384 C.3     1  UNL1       -0.0348
     47 C          13.1150   -4.8524    7.6531 C.3     1  UNL1       -0.0348
     48 C           2.5539    4.0082    6.2924 C.3     1  UNL1        0.1605
     49 C           5.0260   -6.6319    5.7295 C.3     1  UNL1        0.1605
     50 C           4.1438    3.0226    7.7299 C.2     1  UNL1        0.3075
     51 C           4.5140   -9.0168    5.7373 C.2     1  UNL1        0.3075
     52 C           2.3945    5.5298    6.0741 C.3     1  UNL1        0.1315
     53 C           5.9258   -6.3497    6.9449 C.3     1  UNL1        0.1315
     54 C           4.5715    6.4584    5.4572 C.2     1  UNL1        0.3072
     55 C           7.0229   -7.8697    8.3792 C.2     1  UNL1        0.3072
     56 C           6.0283   -3.1588   13.1533 C.2     1  UNL1       -0.0876
     57 C           0.1567  -12.5833   12.4027 C.2     1  UNL1       -0.0876
     58 C           8.6508    4.0500   11.5612 C.2     1  UNL1       -0.0876
     59 C          11.7957   -4.1266    7.6772 C.2     1  UNL1       -0.0876
     60 C           1.3545    3.0099    5.8156 C.3     1  UNL1        0.0993
     61 C           4.1219   -5.3932    5.4594 C.3     1  UNL1        0.0993
     62 C           6.7917   -4.0033   13.8648 C.2     1  UNL1       -0.0842
     63 C          -0.4083  -11.7218   13.2679 C.2     1  UNL1       -0.0842
     64 C           8.3257    3.1422   12.5020 C.2     1  UNL1       -0.0842
     65 C          11.5420   -3.0536    8.4551 C.2     1  UNL1       -0.0842
     66 C           8.2351   -4.3234   13.6486 C.3     1  UNL1       -0.0165
     67 C           0.0541  -10.3228   13.5430 C.3     1  UNL1       -0.0165
     68 C           7.1537    2.8627   13.4028 C.3     1  UNL1       -0.0165
     69 C          12.5406   -2.4167    9.3464 C.3     1  UNL1       -0.0165
     70 C           2.8243   -0.9941    2.2353 C.3     1  UNL1        0.1028
     71 C           8.8961   -4.4144   15.0039 C.2     1  UNL1       -0.0842
     72 C           0.1368  -10.0204   15.0141 C.2     1  UNL1       -0.0842
     73 C           5.9950    2.0552   12.9086 C.2     1  UNL1       -0.0842
     74 C          13.3806   -1.4669    8.5438 C.2     1  UNL1       -0.0842
     75 C           2.7003    0.5206    2.0439 C.3     1  UNL1        0.0872
     76 C           3.9216   -1.3010    3.2413 C.3     1  UNL1        0.0872
     77 C          10.7729   -5.9319   14.3170 C.3     1  UNL1       -0.0348
     78 C           2.6275   -9.6429   15.0836 C.3     1  UNL1       -0.0348
     79 C          11.5771   -5.0424   13.3651 C.3     1  UNL1       -0.0496
     80 C           2.8586   -8.2847   14.4245 C.3     1  UNL1       -0.0496
     81 C           4.1907    3.6559   13.4524 C.3     1  UNL1       -0.0348
     82 C          12.5265    0.5777    9.6978 C.3     1  UNL1       -0.0348
     83 C           2.8800    4.0568   12.7450 C.3     1  UNL1       -0.0496
     84 C          13.3380    0.7264   10.9814 C.3     1  UNL1       -0.0496
     85 C           9.9838   -5.1352   15.3090 C.2     1  UNL1       -0.0876
     86 C           1.2557   -9.7018   15.6862 C.2     1  UNL1       -0.0876
     87 C          12.6535   -4.2294   14.0868 C.3     1  UNL1       -0.0530
     88 C           4.1650   -8.2834   13.6461 C.3     1  UNL1       -0.0530
     89 C           4.7013    2.3245   13.0587 C.2     1  UNL1       -0.0876
     90 C          13.3606   -0.1398    8.6869 C.2     1  UNL1       -0.0876
     91 C           2.4717    5.3800   13.3978 C.3     1  UNL1       -0.0530
     92 C          12.5006    1.3708   12.0756 C.3     1  UNL1       -0.0530
     93 C          13.4321   -3.3610   13.1022 C.3     1  UNL1       -0.0559
     94 C           4.4337   -6.9196   13.0185 C.3     1  UNL1       -0.0559
     95 C           1.1667    5.9406   12.8936 C.3     1  UNL1       -0.0559
     96 C          13.3653    1.6768   13.2919 C.3     1  UNL1       -0.0559
     97 C          14.5232   -2.5729   13.8057 C.3     1  UNL1       -0.0653
     98 C           5.7660   -6.9471   12.2974 C.3     1  UNL1       -0.0653
     99 C           0.8704    7.2176   13.6729 C.3     1  UNL1       -0.0653
    100 C          12.5521    2.3642   14.3714 C.3     1  UNL1       -0.0653
    101 H           5.0184   -1.4678    9.1372 H       1  UNL1        0.0265
    102 H           5.7167   -0.0492    8.3847 H       1  UNL1        0.0265
    103 H          -0.0724   -8.9773    8.7606 H       1  UNL1        0.0265
    104 H          -0.0930  -10.5935    8.1054 H       1  UNL1        0.0265
    105 H           3.3608   -0.2010   10.2559 H       1  UNL1        0.0265
    106 H           3.3946    0.2315    8.5633 H       1  UNL1        0.0265
    107 H           2.2486   -8.5847    8.0690 H       1  UNL1        0.0265
    108 H           1.1093   -8.9219    6.7772 H       1  UNL1        0.0265
    109 H           7.2959   -0.8560    9.8692 H       1  UNL1        0.0265
    110 H           6.6995    0.6357   10.5289 H       1  UNL1        0.0265
    111 H           1.5418   -9.6865   10.5554 H       1  UNL1        0.0265
    112 H          -0.0970  -10.3081   10.5819 H       1  UNL1        0.0265
    113 H           5.7444    7.6017   10.3379 H       1  UNL1        0.0265
    114 H           6.0124    6.3145    9.1688 H       1  UNL1        0.0265
    115 H          12.9268   -8.2915    8.3582 H       1  UNL1        0.0265
    116 H          11.9599   -7.2631    7.3126 H       1  UNL1        0.0265
    117 H           5.7334    9.2877    8.6759 H       1  UNL1        0.0265
    118 H           4.5530    8.0545    8.3087 H       1  UNL1        0.0265
    119 H          10.8595   -8.9334    9.6060 H       1  UNL1        0.0265
    120 H          10.8150   -9.3386    7.8886 H       1  UNL1        0.0265
    121 H           8.3505    7.2062    8.8149 H       1  UNL1        0.0265
    122 H           8.0193    8.5099    9.9482 H       1  UNL1        0.0265
    123 H          11.3041   -5.9232    9.4404 H       1  UNL1        0.0265
    124 H          12.3884   -6.9484   10.3377 H       1  UNL1        0.0265
    125 H           4.2559    1.8809   10.8884 H       1  UNL1        0.0270
    126 H           2.8189    2.1012    9.9438 H       1  UNL1        0.0270
    127 H           1.9629  -11.2962    6.7129 H       1  UNL1        0.0270
    128 H           3.2903  -10.7991    7.7584 H       1  UNL1        0.0270
    129 H           7.1324   -0.8427   12.3234 H       1  UNL1        0.0268
    130 H           5.3648   -0.7498   12.2236 H       1  UNL1        0.0268
    131 H           0.6965  -12.4856    9.5896 H       1  UNL1        0.0268
    132 H           2.3478  -11.8869    9.7463 H       1  UNL1        0.0268
    133 H           7.2014    8.4601    6.8852 H       1  UNL1        0.0270
    134 H           5.6790    9.1375    6.3854 H       1  UNL1        0.0270
    135 H           9.5022   -7.2252    7.4442 H       1  UNL1        0.0270
    136 H           9.4382   -6.9115    9.1706 H       1  UNL1        0.0270
    137 H           9.3293    6.6889   11.0054 H       1  UNL1        0.0268
    138 H           7.8040    6.9435   11.8355 H       1  UNL1        0.0268
    139 H          13.6095   -4.9944    9.7777 H       1  UNL1        0.0268
    140 H          14.2867   -6.2585    8.7958 H       1  UNL1        0.0268
    141 H           5.6994    2.7408    9.1397 H       1  UNL1        0.0377
    142 H           4.4605    3.8773    9.6151 H       1  UNL1        0.0377
    143 H           2.6694   -9.7375    4.9218 H       1  UNL1        0.0377
    144 H           3.8256  -10.9617    5.3562 H       1  UNL1        0.0377
    145 H           5.3294   -2.9787   11.1804 H       1  UNL1        0.0307
    146 H           7.0868   -3.0879   11.2540 H       1  UNL1        0.0307
    147 H           1.8973  -13.3799   11.5563 H       1  UNL1        0.0307
    148 H           2.1489  -11.7935   12.2110 H       1  UNL1        0.0307
    149 H           6.5805    6.2444    6.1743 H       1  UNL1        0.0377
    150 H           6.3168    7.4610    4.9483 H       1  UNL1        0.0377
    151 H           8.2978   -9.0463    9.5944 H       1  UNL1        0.0377
    152 H           8.3370   -9.4695    7.8787 H       1  UNL1        0.0377
    153 H           6.8103    4.9171   10.8491 H       1  UNL1        0.0307
    154 H           8.1370    4.8137    9.6979 H       1  UNL1        0.0307
    155 H          13.9391   -4.1523    7.4687 H       1  UNL1        0.0307
    156 H          13.1159   -5.5173    6.7811 H       1  UNL1        0.0307
    157 H           3.4826    3.8377    5.7709 H       1  UNL1        0.0792
    158 H           5.6414   -6.8425    4.8480 H       1  UNL1        0.0792
    159 H           2.1273    5.7557    5.0344 H       1  UNL1        0.0736
    160 H           1.6195    5.9415    6.7215 H       1  UNL1        0.0736
    161 H           6.4877   -5.4208    6.7935 H       1  UNL1        0.0736
    162 H           5.3024   -6.2165    7.8348 H       1  UNL1        0.0736
    163 H           5.1455   -2.7885   13.6737 H       1  UNL1        0.0569
    164 H          -0.3035  -13.5689   12.3153 H       1  UNL1        0.0569
    165 H           9.6990    4.0028   11.2506 H       1  UNL1        0.0569
    166 H          11.0107   -4.4864    7.0177 H       1  UNL1        0.0569
    167 H           0.4931    3.2464    6.4515 H       1  UNL1        0.0604
    168 H           1.6478    1.9902    6.0941 H       1  UNL1        0.0604
    169 H           3.2988   -5.4263    6.1772 H       1  UNL1        0.0604
    170 H           3.6643   -5.4518    4.4612 H       1  UNL1        0.0604
    171 H           6.3673   -4.4051   14.7868 H       1  UNL1        0.0572
    172 H          -1.3051  -12.0382   13.8012 H       1  UNL1        0.0572
    173 H           9.1591    2.4875   12.7809 H       1  UNL1        0.0572
    174 H          10.5514   -2.5961    8.4165 H       1  UNL1        0.0572
    175 H           8.3660   -5.2401   13.0636 H       1  UNL1        0.0350
    176 H           8.7037   -3.4949   13.1058 H       1  UNL1        0.0350
    177 H           1.0086  -10.1299   13.0494 H       1  UNL1        0.0350
    178 H          -0.6588   -9.6257   13.0894 H       1  UNL1        0.0350
    179 H           7.5613    2.1927   14.1816 H       1  UNL1        0.0350
    180 H           6.8484    3.7501   13.9480 H       1  UNL1        0.0350
    181 H          12.0134   -1.9374   10.1773 H       1  UNL1        0.0350
    182 H          13.2174   -3.1140    9.8309 H       1  UNL1        0.0350
    183 H           1.8730   -1.4304    2.5592 H       1  UNL1        0.0640
    184 H           8.4443   -3.8279   15.8046 H       1  UNL1        0.0572
    185 H          -0.8096   -9.9985   15.5504 H       1  UNL1        0.0572
    186 H           6.2623    1.0705   12.5658 H       1  UNL1        0.0572
    187 H          14.0313   -1.8984    7.7919 H       1  UNL1        0.0572
    188 H           1.9263    0.6607    1.2813 H       1  UNL1        0.0592
    189 H           3.6108    0.9457    1.6068 H       1  UNL1        0.0592
    190 H           4.8993   -1.1442    2.7672 H       1  UNL1        0.0592
    191 H           3.8280   -0.6317    4.1000 H       1  UNL1        0.0592
    192 H          11.4438   -6.6083   14.8586 H       1  UNL1        0.0307
    193 H          10.0963   -6.5744   13.7415 H       1  UNL1        0.0307
    194 H           3.3752   -9.8159   15.8667 H       1  UNL1        0.0307
    195 H           2.7644  -10.4561   14.3605 H       1  UNL1        0.0307
    196 H          12.0446   -5.6790   12.6063 H       1  UNL1        0.0268
    197 H          10.9115   -4.3586   12.8244 H       1  UNL1        0.0268
    198 H           2.0363   -8.0421   13.7391 H       1  UNL1        0.0268
    199 H           2.8745   -7.5002   15.1906 H       1  UNL1        0.0268
    200 H           4.0519    3.6558   14.5377 H       1  UNL1        0.0307
    201 H           4.9331    4.4196   13.1994 H       1  UNL1        0.0307
    202 H          12.2311    1.5538    9.3005 H       1  UNL1        0.0307
    203 H          11.5880    0.0481    9.8941 H       1  UNL1        0.0307
    204 H           3.0494    4.1911   11.6781 H       1  UNL1        0.0268
    205 H           2.1124    3.2945   12.8787 H       1  UNL1        0.0268
    206 H          13.6923   -0.2511   11.3284 H       1  UNL1        0.0268
    207 H          14.2270    1.3329   10.7749 H       1  UNL1        0.0268
    208 H          10.3582   -5.1050   16.3317 H       1  UNL1        0.0569
    209 H           1.1814   -9.4359   16.7392 H       1  UNL1        0.0569
    210 H          12.1990   -3.5843   14.8488 H       1  UNL1        0.0265
    211 H          13.3363   -4.9116   14.6063 H       1  UNL1        0.0265
    212 H           4.9926   -8.5558   14.3110 H       1  UNL1        0.0265
    213 H           4.1192   -9.0438   12.8555 H       1  UNL1        0.0265
    214 H           3.9559    1.5529   12.8526 H       1  UNL1        0.0569
    215 H          14.0175    0.4706    8.0595 H       1  UNL1        0.0569
    216 H           2.4024    5.2157   14.4810 H       1  UNL1        0.0265
    217 H           3.2758    6.1071   13.2354 H       1  UNL1        0.0265
    218 H          12.0487    2.2951   11.6976 H       1  UNL1        0.0265
    219 H          11.6809    0.6978   12.3562 H       1  UNL1        0.0265
    220 H          13.8816   -3.9898   12.3255 H       1  UNL1        0.0263
    221 H          12.7490   -2.6635   12.6036 H       1  UNL1        0.0263
    222 H           3.6353   -6.6683   12.3101 H       1  UNL1        0.0263
    223 H           4.4428   -6.1416   13.7895 H       1  UNL1        0.0263
    224 H           1.2297    6.1585   11.8218 H       1  UNL1        0.0263
    225 H           0.3580    5.2135   13.0397 H       1  UNL1        0.0263
    226 H          13.7986    0.7505   13.6883 H       1  UNL1        0.0263
    227 H          14.1997    2.3250   12.9986 H       1  UNL1        0.0263
    228 H           3.7761    3.3135    3.6657 H       1  UNL1        0.2220
    229 H           6.0948   -1.1858    4.8892 H       1  UNL1        0.2220
    230 H           2.4228   -2.0973    0.6578 H       1  UNL1        0.2100
    231 H          15.2532   -3.2453   14.2673 H       1  UNL1        0.0230
    232 H          15.0506   -1.9356   13.0898 H       1  UNL1        0.0230
    233 H          14.1031   -1.9325   14.5879 H       1  UNL1        0.0230
    234 H           5.7865   -7.7740   11.5859 H       1  UNL1        0.0230
    235 H           5.9355   -6.0139   11.7548 H       1  UNL1        0.0230
    236 H           6.5880   -7.0993   13.0032 H       1  UNL1        0.0230
    237 H           1.6636    7.9494   13.5060 H       1  UNL1        0.0230
    238 H          -0.0801    7.6514   13.3942 H       1  UNL1        0.0230
    239 H           0.8371    6.9970   14.7488 H       1  UNL1        0.0230
    240 H          11.7370    1.7193   14.7143 H       1  UNL1        0.0230
    241 H          13.1879    2.6024   15.2286 H       1  UNL1        0.0230
    242 H          12.1185    3.2966   13.9960 H       1  UNL1        0.0230
@<TRIPOS>BOND
     1     1     7    1
     2     1    13    1
     3     1    15    1
     4     1    18    2
     5     2     8    1
     6     2    14    1
     7     2    16    1
     8     2    19    2
     9     3    50    1
    10     4    51    1
    11     5    52    1
    12     5    54    1
    13     6    53    1
    14     6    55    1
    15     7    60    1
    16     8    61    1
    17     9    50    2
    18    10    51    2
    19    11    54    2
    20    12    55    2
    21    13    75    1
    22    14    76    1
    23    15   228    1
    24    16   229    1
    25    17    70    1
    26    17   230    1
    27    20    22    1
    28    20    24    1
    29    20   101    1
    30    20   102    1
    31    21    23    1
    32    21    25    1
    33    21   103    1
    34    21   104    1
    35    22    32    1
    36    22   105    1
    37    22   106    1
    38    23    33    1
    39    23   107    1
    40    23   108    1
    41    24    34    1
    42    24   109    1
    43    24   110    1
    44    25    35    1
    45    25   111    1
    46    25   112    1
    47    26    28    1
    48    26    30    1
    49    26   113    1
    50    26   114    1
    51    27    29    1
    52    27    31    1
    53    27   115    1
    54    27   116    1
    55    28    36    1
    56    28   117    1
    57    28   118    1
    58    29    37    1
    59    29   119    1
    60    29   120    1
    61    30    38    1
    62    30   121    1
    63    30   122    1
    64    31    39    1
    65    31   123    1
    66    31   124    1
    67    32    40    1
    68    32   125    1
    69    32   126    1
    70    33    41    1
    71    33   127    1
    72    33   128    1
    73    34    42    1
    74    34   129    1
    75    34   130    1
    76    35    43    1
    77    35   131    1
    78    35   132    1
    79    36    44    1
    80    36   133    1
    81    36   134    1
    82    37    45    1
    83    37   135    1
    84    37   136    1
    85    38    46    1
    86    38   137    1
    87    38   138    1
    88    39    47    1
    89    39   139    1
    90    39   140    1
    91    40    50    1
    92    40   141    1
    93    40   142    1
    94    41    51    1
    95    41   143    1
    96    41   144    1
    97    42    56    1
    98    42   145    1
    99    42   146    1
   100    43    57    1
   101    43   147    1
   102    43   148    1
   103    44    54    1
   104    44   149    1
   105    44   150    1
   106    45    55    1
   107    45   151    1
   108    45   152    1
   109    46    58    1
   110    46   153    1
   111    46   154    1
   112    47    59    1
   113    47   155    1
   114    47   156    1
   115    48    60    1
   116    48   157    1
   117    49    61    1
   118    49   158    1
   119    52   159    1
   120    52   160    1
   121    53   161    1
   122    53   162    1
   123    56    62    2
   124    56   163    1
   125    57    63    2
   126    57   164    1
   127    58    64    2
   128    58   165    1
   129    59    65    2
   130    59   166    1
   131    60   167    1
   132    60   168    1
   133    61   169    1
   134    61   170    1
   135    62    66    1
   136    62   171    1
   137    63    67    1
   138    63   172    1
   139    64    68    1
   140    64   173    1
   141    65    69    1
   142    65   174    1
   143    66    71    1
   144    66   175    1
   145    66   176    1
   146    67    72    1
   147    67   177    1
   148    67   178    1
   149    68    73    1
   150    68   179    1
   151    68   180    1
   152    69    74    1
   153    69   181    1
   154    69   182    1
   155    70    75    1
   156    70    76    1
   157    70   183    1
   158    71    85    2
   159    71   184    1
   160    72    86    2
   161    72   185    1
   162    73    89    2
   163    73   186    1
   164    74    90    2
   165    74   187    1
   166    75   188    1
   167    75   189    1
   168    76   190    1
   169    76   191    1
   170    77    79    1
   171    77    85    1
   172    77   192    1
   173    77   193    1
   174    78    80    1
   175    78    86    1
   176    78   194    1
   177    78   195    1
   178    79    87    1
   179    79   196    1
   180    79   197    1
   181    80    88    1
   182    80   198    1
   183    80   199    1
   184    81    83    1
   185    81    89    1
   186    81   200    1
   187    81   201    1
   188    82    84    1
   189    82    90    1
   190    82   202    1
   191    82   203    1
   192    83    91    1
   193    83   204    1
   194    83   205    1
   195    84    92    1
   196    84   206    1
   197    84   207    1
   198    85   208    1
   199    86   209    1
   200    87    93    1
   201    87   210    1
   202    87   211    1
   203    88    94    1
   204    88   212    1
   205    88   213    1
   206    89   214    1
   207    90   215    1
   208    91    95    1
   209    91   216    1
   210    91   217    1
   211    92    96    1
   212    92   218    1
   213    92   219    1
   214    93    97    1
   215    93   220    1
   216    93   221    1
   217    94    98    1
   218    94   222    1
   219    94   223    1
   220    95    99    1
   221    95   224    1
   222    95   225    1
   223    96   100    1
   224    96   226    1
   225    96   227    1
   226    97   231    1
   227    97   232    1
   228    97   233    1
   229    98   234    1
   230    98   235    1
   231    98   236    1
   232    99   237    1
   233    99   238    1
   234    99   239    1
   235   100   240    1
   236   100   241    1
   237   100   242    1
   238    48    52    1
   239    48     3    1
   240    49    53    1
   241    49     4    1
