@<TRIPOS>MOLECULE
choline
 21 20 0 0 0
SMALL
GASTEIGER

@<TRIPOS>ATOM
      1 O           2.8438   -0.2447   -0.0001 O.3     1  UNL1       -0.3898
      2 N          -0.8815   -0.0256    0.0000 N.4     1  UNL1        0.2385
      3 C           0.4860   -0.6925    0.0389 C.3     1  UNL1       -0.0071
      4 C          -1.0018    0.8116   -1.2653 C.3     1  UNL1       -0.0417
      5 C          -1.9665   -1.0928    0.0074 C.3     1  UNL1       -0.0417
      6 C          -1.0437    0.8711    1.2189 C.3     1  UNL1       -0.0417
      7 C           1.5636    0.3730    0.0002 C.3     1  UNL1        0.0841
      8 H           0.5503   -1.2977    0.9513 H       1  UNL1        0.0837
      9 H           0.5649   -1.3696   -0.8202 H       1  UNL1        0.0837
     10 H          -0.6981    0.2022   -2.1215 H       1  UNL1        0.0778
     11 H          -2.0502    1.1084   -1.3741 H       1  UNL1        0.0778
     12 H          -0.3944    1.7160   -1.1807 H       1  UNL1        0.0778
     13 H          -1.8610   -1.6856    0.9208 H       1  UNL1        0.0778
     14 H          -2.9431   -0.6003   -0.0166 H       1  UNL1        0.0778
     15 H          -1.8360   -1.7236   -0.8770 H       1  UNL1        0.0778
     16 H          -0.7933    0.2953    2.1147 H       1  UNL1        0.0778
     17 H          -0.4097    1.7559    1.1247 H       1  UNL1        0.0778
     18 H          -2.0891    1.1937    1.2633 H       1  UNL1        0.0778
     19 H           1.5343    0.9794   -0.9066 H       1  UNL1        0.0610
     20 H           1.5448    1.0391    0.8656 H       1  UNL1        0.0610
     21 H           2.9121   -0.7787    0.8097 H       1  UNL1        0.2096
@<TRIPOS>UNITY_ATOM_ATTR
2 1
charge 1
@<TRIPOS>BOND
     1     1     7    1
     2     1    21    1
     3     2     3    1
     4     2     4    1
     5     2     5    1
     6     2     6    1
     7     3     7    1
     8     3     8    1
     9     3     9    1
    10     4    10    1
    11     4    11    1
    12     4    12    1
    13     5    13    1
    14     5    14    1
    15     5    15    1
    16     6    16    1
    17     6    17    1
    18     6    18    1
    19     7    19    1
    20     7    20    1
