@<TRIPOS>MOLECULE
dipalmitoylglycerol
 108 107 0 0 0
SMALL
GASTEIGER

@<TRIPOS>ATOM
      1 O           2.6754    0.6410   -1.6380 O.3     1  UNL1       -0.4556
      2 O          -0.0987    1.4397   -1.0079 O.3     1  UNL1       -0.4608
      3 O           3.8438   -1.3291   -1.4412 O.2     1  UNL1       -0.2508
      4 O          -2.0977    0.3151   -0.9956 O.2     1  UNL1       -0.2509
      5 O           3.7686    1.7135    0.7882 O.3     1  UNL1       -0.3912
      6 C           3.4389    0.6415   -9.0497 C.3     1  UNL1       -0.0531
      7 C           3.3281   -0.3248  -10.2287 C.3     1  UNL1       -0.0531
      8 C          -6.3167   -1.1198   -7.2921 C.3     1  UNL1       -0.0531
      9 C          -4.8623   -0.7542   -6.9963 C.3     1  UNL1       -0.0531
     10 C           2.7081    0.0654   -7.8413 C.3     1  UNL1       -0.0531
     11 C           4.0553    0.2057  -11.4595 C.3     1  UNL1       -0.0531
     12 C          -6.4087   -2.1568   -8.4124 C.3     1  UNL1       -0.0531
     13 C          -4.7642    0.2806   -5.8748 C.3     1  UNL1       -0.0531
     14 C           2.7526    0.9974   -6.6320 C.3     1  UNL1       -0.0531
     15 C           3.9353   -0.7771  -12.6231 C.3     1  UNL1       -0.0531
     16 C          -7.8625   -2.5254   -8.7114 C.3     1  UNL1       -0.0531
     17 C          -3.3062    0.6411   -5.5909 C.3     1  UNL1       -0.0531
     18 C           2.0272    0.3984   -5.4209 C.3     1  UNL1       -0.0530
     19 C           4.6511   -0.2509  -13.8649 C.3     1  UNL1       -0.0531
     20 C          -7.9539   -3.5656   -9.8291 C.3     1  UNL1       -0.0531
     21 C          -3.1889    1.6729   -4.4679 C.3     1  UNL1       -0.0530
     22 C           2.6161   -0.9236   -4.9142 C.3     1  UNL1       -0.0526
     23 C           4.5322   -1.2358  -15.0276 C.3     1  UNL1       -0.0531
     24 C          -9.4082   -3.9307  -10.1341 C.3     1  UNL1       -0.0531
     25 C          -1.7217    2.0186   -4.2034 C.3     1  UNL1       -0.0526
     26 C           4.0783   -0.8299   -4.4690 C.3     1  UNL1       -0.0430
     27 C           5.2461   -0.7076  -16.2716 C.3     1  UNL1       -0.0533
     28 C          -9.4968   -4.9714  -11.2519 C.3     1  UNL1       -0.0533
     29 C          -1.5169    3.0442   -3.0842 C.3     1  UNL1       -0.0430
     30 C           5.1391   -1.6910  -17.4360 C.3     1  UNL1       -0.0559
     31 C         -10.9469   -5.3487  -11.5549 C.3     1  UNL1       -0.0559
     32 C           4.3165    0.1329   -3.3023 C.3     1  UNL1        0.0450
     33 C          -2.0389    2.6196   -1.7135 C.3     1  UNL1        0.0449
     34 C           5.8518   -1.1642  -18.6715 C.3     1  UNL1       -0.0653
     35 C         -11.0301   -6.3825  -12.6672 C.3     1  UNL1       -0.0653
     36 C           3.6009   -0.2820   -2.0350 C.2     1  UNL1        0.3075
     37 C          -1.4428    1.3247   -1.2119 C.2     1  UNL1        0.3072
     38 C           2.0392    0.4001   -0.3529 C.3     1  UNL1        0.1597
     39 C           0.5223    0.2293   -0.5348 C.3     1  UNL1        0.1315
     40 C           2.3613    1.5656    0.5941 C.3     1  UNL1        0.0844
     41 H           3.0121    1.6141   -9.3200 H       1  UNL1        0.0265
     42 H           4.4949    0.8037   -8.8008 H       1  UNL1        0.0265
     43 H           3.7464   -1.2994   -9.9468 H       1  UNL1        0.0265
     44 H           2.2701   -0.4881  -10.4690 H       1  UNL1        0.0265
     45 H          -6.7882   -1.5155   -6.3844 H       1  UNL1        0.0265
     46 H          -6.8713   -0.2180   -7.5785 H       1  UNL1        0.0265
     47 H          -4.3912   -0.3575   -7.9040 H       1  UNL1        0.0265
     48 H          -4.3070   -1.6566   -6.7125 H       1  UNL1        0.0265
     49 H           3.1695   -0.8968   -7.5955 H       1  UNL1        0.0265
     50 H           1.6618   -0.1344   -8.1024 H       1  UNL1        0.0265
     51 H           3.6314    1.1751  -11.7474 H       1  UNL1        0.0265
     52 H           5.1130    0.3702  -11.2213 H       1  UNL1        0.0265
     53 H          -5.9358   -1.7603   -9.3192 H       1  UNL1        0.0265
     54 H          -5.8524   -3.0575   -8.1254 H       1  UNL1        0.0265
     55 H          -5.2298   -0.1174   -4.9649 H       1  UNL1        0.0265
     56 H          -5.3201    1.1833   -6.1552 H       1  UNL1        0.0265
     57 H           2.2741    1.9503   -6.8894 H       1  UNL1        0.0265
     58 H           3.7909    1.2373   -6.3766 H       1  UNL1        0.0265
     59 H           4.3627   -1.7449  -12.3330 H       1  UNL1        0.0265
     60 H           2.8764   -0.9481  -12.8528 H       1  UNL1        0.0265
     61 H          -8.3355   -2.9191   -7.8036 H       1  UNL1        0.0265
     62 H          -8.4172   -1.6246   -9.0009 H       1  UNL1        0.0265
     63 H          -2.8400    1.0339   -6.5026 H       1  UNL1        0.0265
     64 H          -2.7549   -0.2649   -5.3105 H       1  UNL1        0.0265
     65 H           0.9746    0.2336   -5.6819 H       1  UNL1        0.0265
     66 H           2.0242    1.1345   -4.6095 H       1  UNL1        0.0265
     67 H           4.2213    0.7158  -14.1542 H       1  UNL1        0.0265
     68 H           5.7094   -0.0786  -13.6336 H       1  UNL1        0.0265
     69 H          -7.4754   -3.1741  -10.7352 H       1  UNL1        0.0265
     70 H          -7.4023   -4.4674   -9.5365 H       1  UNL1        0.0265
     71 H          -3.6548    1.2659   -3.5641 H       1  UNL1        0.0265
     72 H          -3.7403    2.5817   -4.7381 H       1  UNL1        0.0265
     73 H           2.5308   -1.6916   -5.6924 H       1  UNL1        0.0265
     74 H           2.0044   -1.2896   -4.0817 H       1  UNL1        0.0265
     75 H           4.9634   -2.2014  -14.7366 H       1  UNL1        0.0265
     76 H           3.4736   -1.4096  -15.2557 H       1  UNL1        0.0265
     77 H          -9.8859   -4.3224   -9.2279 H       1  UNL1        0.0265
     78 H          -9.9597   -3.0290  -10.4269 H       1  UNL1        0.0265
     79 H          -1.2830    2.4264   -5.1232 H       1  UNL1        0.0265
     80 H          -1.1615    1.1050   -3.9728 H       1  UNL1        0.0265
     81 H           4.7033   -0.5236   -5.3199 H       1  UNL1        0.0270
     82 H           4.4249   -1.8352   -4.2002 H       1  UNL1        0.0270
     83 H           4.8105    0.2559  -16.5628 H       1  UNL1        0.0265
     84 H           6.3027   -0.5277  -16.0394 H       1  UNL1        0.0265
     85 H          -9.0235   -4.5765  -12.1591 H       1  UNL1        0.0265
     86 H          -8.9385   -5.8697  -10.9613 H       1  UNL1        0.0265
     87 H          -2.0037    3.9853   -3.3695 H       1  UNL1        0.0270
     88 H          -0.4440    3.2603   -3.0110 H       1  UNL1        0.0270
     89 H           5.5764   -2.6551  -17.1506 H       1  UNL1        0.0263
     90 H           4.0846   -1.8724  -17.6759 H       1  UNL1        0.0263
     91 H         -11.4233   -5.7516  -10.6535 H       1  UNL1        0.0263
     92 H         -11.5119   -4.4567  -11.8496 H       1  UNL1        0.0263
     93 H           4.0552    1.1596   -3.5765 H       1  UNL1        0.0377
     94 H           5.3897    0.1486   -3.0735 H       1  UNL1        0.0377
     95 H          -3.1293    2.5096   -1.7386 H       1  UNL1        0.0377
     96 H          -1.8346    3.4011   -0.9727 H       1  UNL1        0.0377
     97 H           6.9143   -0.9915  -18.4716 H       1  UNL1        0.0230
     98 H           5.7726   -1.8864  -19.4894 H       1  UNL1        0.0230
     99 H           5.4058   -0.2224  -19.0075 H       1  UNL1        0.0230
    100 H         -10.4882   -7.2944  -12.3966 H       1  UNL1        0.0230
    101 H         -12.0734   -6.6518  -12.8589 H       1  UNL1        0.0230
    102 H         -10.6036   -5.9928  -13.5971 H       1  UNL1        0.0230
    103 H           2.4276   -0.5161    0.1017 H       1  UNL1        0.0792
    104 H           0.3304   -0.5696   -1.2598 H       1  UNL1        0.0736
    105 H           0.0753   -0.0385    0.4314 H       1  UNL1        0.0736
    106 H           1.9909    2.5168    0.2008 H       1  UNL1        0.0595
    107 H           1.9048    1.3991    1.5763 H       1  UNL1        0.0595
    108 H           4.1144    0.8780    1.1475 H       1  UNL1        0.2096
@<TRIPOS>BOND
     1     1    36    1
     2     2    37    1
     3     2    39    1
     4     3    36    2
     5     4    37    2
     6     5    40    1
     7     5   108    1
     8     6     7    1
     9     6    10    1
    10     6    41    1
    11     6    42    1
    12     7    11    1
    13     7    43    1
    14     7    44    1
    15     8     9    1
    16     8    12    1
    17     8    45    1
    18     8    46    1
    19     9    13    1
    20     9    47    1
    21     9    48    1
    22    10    14    1
    23    10    49    1
    24    10    50    1
    25    11    15    1
    26    11    51    1
    27    11    52    1
    28    12    16    1
    29    12    53    1
    30    12    54    1
    31    13    17    1
    32    13    55    1
    33    13    56    1
    34    14    18    1
    35    14    57    1
    36    14    58    1
    37    15    19    1
    38    15    59    1
    39    15    60    1
    40    16    20    1
    41    16    61    1
    42    16    62    1
    43    17    21    1
    44    17    63    1
    45    17    64    1
    46    18    22    1
    47    18    65    1
    48    18    66    1
    49    19    23    1
    50    19    67    1
    51    19    68    1
    52    20    24    1
    53    20    69    1
    54    20    70    1
    55    21    25    1
    56    21    71    1
    57    21    72    1
    58    22    26    1
    59    22    73    1
    60    22    74    1
    61    23    27    1
    62    23    75    1
    63    23    76    1
    64    24    28    1
    65    24    77    1
    66    24    78    1
    67    25    29    1
    68    25    79    1
    69    25    80    1
    70    26    32    1
    71    26    81    1
    72    26    82    1
    73    27    30    1
    74    27    83    1
    75    27    84    1
    76    28    31    1
    77    28    85    1
    78    28    86    1
    79    29    33    1
    80    29    87    1
    81    29    88    1
    82    30    34    1
    83    30    89    1
    84    30    90    1
    85    31    35    1
    86    31    91    1
    87    31    92    1
    88    32    36    1
    89    32    93    1
    90    32    94    1
    91    33    37    1
    92    33    95    1
    93    33    96    1
    94    34    97    1
    95    34    98    1
    96    34    99    1
    97    35   100    1
    98    35   101    1
    99    35   102    1
   100    38    40    1
   101    38   103    1
   102    39   104    1
   103    39   105    1
   104    40   106    1
   105    40   107    1
   106    38    39    1
   107    38     1    1
