@<TRIPOS>MOLECULE
dmpc
 118 117 0 0 0
SMALL
GASTEIGER

@<TRIPOS>ATOM
      1 P           0.8425   -0.5935    2.2670 P.3     1  UNL1        0.2128
      2 O          -0.5711   -0.9190    1.5058 O.3     1  UNL1       -0.3221
      3 O           5.5408   -1.6819    0.5541 O.3     1  UNL1       -0.4555
      4 O           4.3434    0.4531   -1.3345 O.3     1  UNL1       -0.4608
      5 O           1.8807   -1.1111    1.1284 O.3     1  UNL1       -0.3236
      6 O           5.8451    0.4206    1.3828 O.2     1  UNL1       -0.2508
      7 O           4.0419    0.0179   -3.5618 O.2     1  UNL1       -0.2509
      8 O           0.9022   -1.4961    3.4681 O.co2   1  UNL1       -0.4373
      9 O           0.8903    0.8927    2.4028 O.2     1  UNL1       -0.5172
     10 N          -2.7485   -1.4865    3.6430 N.4     1  UNL1        0.2385
     11 C           9.9759   -1.9338   -3.5546 C.3     1  UNL1       -0.0531
     12 C          11.3057   -1.3969   -4.1049 C.3     1  UNL1       -0.0531
     13 C           7.9626    3.9714   -5.8889 C.3     1  UNL1       -0.0531
     14 C           7.8782    5.3071   -6.6352 C.3     1  UNL1       -0.0531
     15 C           9.0552   -0.8334   -3.0156 C.3     1  UNL1       -0.0531
     16 C          12.1705   -0.7116   -3.0426 C.3     1  UNL1       -0.0531
     17 C           7.3642    4.0897   -4.4795 C.3     1  UNL1       -0.0531
     18 C           8.4700    5.2257   -8.0454 C.3     1  UNL1       -0.0531
     19 C           7.6738   -1.3284   -2.5765 C.3     1  UNL1       -0.0530
     20 C          13.5355   -0.2509   -3.5677 C.3     1  UNL1       -0.0531
     21 C           7.4444    2.7675   -3.7108 C.3     1  UNL1       -0.0530
     22 C           8.3634    6.5755   -8.7620 C.3     1  UNL1       -0.0531
     23 C          -1.7287   -2.5054    3.0477 C.3     1  UNL1       -0.0064
     24 C           7.6556   -2.4072   -1.4912 C.3     1  UNL1       -0.0526
     25 C           6.8761    2.8341   -2.2860 C.3     1  UNL1       -0.0526
     26 C          13.5003    0.7846   -4.6987 C.3     1  UNL1       -0.0531
     27 C           8.9335    6.5161  -10.1811 C.3     1  UNL1       -0.0531
     28 C           8.2619   -2.0411   -0.1301 C.3     1  UNL1       -0.0430
     29 C          -2.0822   -0.1119    3.8205 C.3     1  UNL1       -0.0417
     30 C          -3.9618   -1.3267    2.7609 C.3     1  UNL1       -0.0417
     31 C          -3.1662   -2.0053    5.0230 C.3     1  UNL1       -0.0417
     32 C           5.3853    3.1597   -2.1484 C.3     1  UNL1       -0.0430
     33 C          12.7853    2.0801   -4.3086 C.3     1  UNL1       -0.0533
     34 C           8.8169    7.8710  -10.8828 C.3     1  UNL1       -0.0533
     35 C          -1.1523   -2.1979    1.6504 C.3     1  UNL1        0.0947
     36 C           7.7600   -0.7756    0.5747 C.3     1  UNL1        0.0450
     37 C           4.4149    2.2912   -2.9386 C.3     1  UNL1        0.0449
     38 C          12.8472    3.1222   -5.4259 C.3     1  UNL1       -0.0559
     39 C           9.4049    7.8232  -12.2936 C.3     1  UNL1       -0.0559
     40 C           4.1244   -1.5061    0.2843 C.3     1  UNL1        0.1604
     41 C           6.2865   -0.6122    0.8943 C.2     1  UNL1        0.3075
     42 C           4.2965    0.8094   -2.6538 C.2     1  UNL1        0.3072
     43 C           3.9395   -0.9223   -1.1378 C.3     1  UNL1        0.1315
     44 C          12.1348    4.4029   -5.0181 C.3     1  UNL1       -0.0653
     45 C           9.2896    9.1695  -12.9917 C.3     1  UNL1       -0.0653
     46 C           3.2692   -0.8713    1.3950 C.3     1  UNL1        0.0951
     47 H          10.1879   -2.6698   -2.7718 H       1  UNL1        0.0265
     48 H           9.4624   -2.4681   -4.3641 H       1  UNL1        0.0265
     49 H          11.8669   -2.2380   -4.5303 H       1  UNL1        0.0265
     50 H          11.0956   -0.7065   -4.9294 H       1  UNL1        0.0265
     51 H           9.0084    3.6507   -5.8246 H       1  UNL1        0.0265
     52 H           7.4252    3.2002   -6.4543 H       1  UNL1        0.0265
     53 H           6.8296    5.6211   -6.6984 H       1  UNL1        0.0265
     54 H           8.4106    6.0777   -6.0629 H       1  UNL1        0.0265
     55 H           8.9081   -0.0858   -3.8067 H       1  UNL1        0.0265
     56 H           9.5280   -0.3144   -2.1783 H       1  UNL1        0.0265
     57 H          11.6434    0.1448   -2.6114 H       1  UNL1        0.0265
     58 H          12.3410   -1.4139   -2.2171 H       1  UNL1        0.0265
     59 H           6.3212    4.4121   -4.5646 H       1  UNL1        0.0265
     60 H           7.9010    4.8679   -3.9233 H       1  UNL1        0.0265
     61 H           9.5217    4.9210   -7.9878 H       1  UNL1        0.0265
     62 H           7.9403    4.4592   -8.6240 H       1  UNL1        0.0265
     63 H           7.1494   -1.7229   -3.4563 H       1  UNL1        0.0265
     64 H           7.0863   -0.4681   -2.2392 H       1  UNL1        0.0265
     65 H          14.1023    0.1686   -2.7265 H       1  UNL1        0.0265
     66 H          14.0999   -1.1257   -3.9123 H       1  UNL1        0.0265
     67 H           8.5003    2.4740   -3.6361 H       1  UNL1        0.0265
     68 H           6.9449    1.9727   -4.2751 H       1  UNL1        0.0265
     69 H           7.3122    6.8847   -8.8050 H       1  UNL1        0.0265
     70 H           8.9003    7.3385   -8.1849 H       1  UNL1        0.0265
     71 H          -2.2680   -3.4599    2.9919 H       1  UNL1        0.0838
     72 H          -0.9527   -2.6325    3.8015 H       1  UNL1        0.0838
     73 H           8.1734   -3.2993   -1.8645 H       1  UNL1        0.0265
     74 H           6.6196   -2.7304   -1.3514 H       1  UNL1        0.0265
     75 H           7.4393    3.5914   -1.7249 H       1  UNL1        0.0265
     76 H           7.0727    1.8796   -1.7855 H       1  UNL1        0.0265
     77 H          14.5354    1.0174   -4.9775 H       1  UNL1        0.0265
     78 H          13.0323    0.3528   -5.5906 H       1  UNL1        0.0265
     79 H           9.9864    6.2114  -10.1419 H       1  UNL1        0.0265
     80 H           8.3971    5.7555  -10.7614 H       1  UNL1        0.0265
     81 H           9.3465   -1.9329   -0.2616 H       1  UNL1        0.0270
     82 H           8.1288   -2.8988    0.5408 H       1  UNL1        0.0270
     83 H          -1.9813    0.3652    2.8447 H       1  UNL1        0.0778
     84 H          -2.7516    0.5074    4.4283 H       1  UNL1        0.0778
     85 H          -1.1327   -0.2436    4.3376 H       1  UNL1        0.0778
     86 H          -4.4394   -2.3043    2.6447 H       1  UNL1        0.0778
     87 H          -4.6512   -0.6306    3.2492 H       1  UNL1        0.0778
     88 H          -3.6572   -0.9318    1.7878 H       1  UNL1        0.0778
     89 H          -4.1776   -2.4189    4.9562 H       1  UNL1        0.0778
     90 H          -2.4782   -2.7909    5.3490 H       1  UNL1        0.0778
     91 H          -3.1542   -1.1857    5.7468 H       1  UNL1        0.0778
     92 H           5.2348    4.1978   -2.4767 H       1  UNL1        0.0270
     93 H           5.1162    3.1432   -1.0861 H       1  UNL1        0.0270
     94 H          11.7346    1.8746   -4.0764 H       1  UNL1        0.0265
     95 H          13.2457    2.4908   -3.4018 H       1  UNL1        0.0265
     96 H           7.7623    8.1686  -10.9358 H       1  UNL1        0.0265
     97 H           9.3386    8.6365  -10.2954 H       1  UNL1        0.0265
     98 H          -1.9480   -2.2760    0.9027 H       1  UNL1        0.0618
     99 H          -0.4100   -2.9590    1.3874 H       1  UNL1        0.0618
    100 H           8.0441    0.0959   -0.0258 H       1  UNL1        0.0377
    101 H           8.2915   -0.7018    1.5328 H       1  UNL1        0.0377
    102 H           4.6604    2.3811   -4.0042 H       1  UNL1        0.0377
    103 H           3.4056    2.7055   -2.8234 H       1  UNL1        0.0377
    104 H          13.8915    3.3520   -5.6671 H       1  UNL1        0.0263
    105 H          12.3825    2.7242   -6.3358 H       1  UNL1        0.0263
    106 H          10.4614    7.5334  -12.2461 H       1  UNL1        0.0263
    107 H           8.8863    7.0629  -12.8883 H       1  UNL1        0.0263
    108 H           3.7626   -2.5411    0.2012 H       1  UNL1        0.0792
    109 H           4.5381   -1.5492   -1.8117 H       1  UNL1        0.0736
    110 H           2.8836   -1.0098   -1.4179 H       1  UNL1        0.0736
    111 H          12.5707    4.8209   -4.1050 H       1  UNL1        0.0230
    112 H          12.2148    5.1543   -5.8096 H       1  UNL1        0.0230
    113 H          11.0732    4.2165   -4.8317 H       1  UNL1        0.0230
    114 H           9.8146    9.9492  -12.4309 H       1  UNL1        0.0230
    115 H           9.7294    9.1172  -13.9926 H       1  UNL1        0.0230
    116 H           8.2417    9.4685  -13.0965 H       1  UNL1        0.0230
    117 H           3.4339    0.2034    1.4752 H       1  UNL1        0.0602
    118 H           3.5258   -1.3321    2.3560 H       1  UNL1        0.0602
@<TRIPOS>UNITY_ATOM_ATTR
8 1
charge -1
10 1
charge 1
@<TRIPOS>BOND
     1     1     2    1
     2     1     5    1
     3     1     8    1
     4     1     9    2
     5     2    35    1
     6     3    41    1
     7     4    42    1
     8     4    43    1
     9     5    46    1
    10     6    41    2
    11     7    42    2
    12    10    23    1
    13    10    29    1
    14    10    30    1
    15    10    31    1
    16    11    12    1
    17    11    15    1
    18    11    47    1
    19    11    48    1
    20    12    16    1
    21    12    49    1
    22    12    50    1
    23    13    14    1
    24    13    17    1
    25    13    51    1
    26    13    52    1
    27    14    18    1
    28    14    53    1
    29    14    54    1
    30    15    19    1
    31    15    55    1
    32    15    56    1
    33    16    20    1
    34    16    57    1
    35    16    58    1
    36    17    21    1
    37    17    59    1
    38    17    60    1
    39    18    22    1
    40    18    61    1
    41    18    62    1
    42    19    24    1
    43    19    63    1
    44    19    64    1
    45    20    26    1
    46    20    65    1
    47    20    66    1
    48    21    25    1
    49    21    67    1
    50    21    68    1
    51    22    27    1
    52    22    69    1
    53    22    70    1
    54    23    35    1
    55    23    71    1
    56    23    72    1
    57    24    28    1
    58    24    73    1
    59    24    74    1
    60    25    32    1
    61    25    75    1
    62    25    76    1
    63    26    33    1
    64    26    77    1
    65    26    78    1
    66    27    34    1
    67    27    79    1
    68    27    80    1
    69    28    36    1
    70    28    81    1
    71    28    82    1
    72    29    83    1
    73    29    84    1
    74    29    85    1
    75    30    86    1
    76    30    87    1
    77    30    88    1
    78    31    89    1
    79    31    90    1
    80    31    91    1
    81    32    37    1
    82    32    92    1
    83    32    93    1
    84    33    38    1
    85    33    94    1
    86    33    95    1
    87    34    39    1
    88    34    96    1
    89    34    97    1
    90    35    98    1
    91    35    99    1
    92    36    41    1
    93    36   100    1
    94    36   101    1
    95    37    42    1
    96    37   102    1
    97    37   103    1
    98    38    44    1
    99    38   104    1
   100    38   105    1
   101    39    45    1
   102    39   106    1
   103    39   107    1
   104    40    46    1
   105    40   108    1
   106    43   109    1
   107    43   110    1
   108    44   111    1
   109    44   112    1
   110    44   113    1
   111    45   114    1
   112    45   115    1
   113    45   116    1
   114    46   117    1
   115    46   118    1
   116    40    43    1
   117    40     3    1
