@<TRIPOS>MOLECULE
dopc
 138 137 0 0 0
SMALL
GASTEIGER

@<TRIPOS>ATOM
      1 P           1.9418   -5.0122   -0.7739 P.3     1  UNL1        0.2128
      2 O           1.1062   -5.8476   -1.9158 O.3     1  UNL1       -0.3221
      3 O           2.1485   -3.5484   -1.4497 O.3     1  UNL1       -0.3236
      4 O           3.0917   -1.4370    1.7084 O.3     1  UNL1       -0.4555
      5 O           5.2785   -1.8334   -0.2808 O.3     1  UNL1       -0.4608
      6 O           3.3035   -5.6343   -0.5914 O.co2   1  UNL1       -0.4373
      7 O           0.9872   -4.9345    0.3897 O.2     1  UNL1       -0.5172
      8 O           2.1141    0.2612    0.5376 O.2     1  UNL1       -0.2508
      9 O           6.7674   -1.5311    1.4466 O.2     1  UNL1       -0.2509
     10 N          -1.7853   -7.1214   -0.7061 N.4     1  UNL1        0.2385
     11 C          -0.2579   -7.4688   -0.4742 C.3     1  UNL1       -0.0064
     12 C          -2.5127   -7.4556    0.6214 C.3     1  UNL1       -0.0417
     13 C          -2.0183   -5.6376   -0.9735 C.3     1  UNL1       -0.0417
     14 C          -2.4134   -7.8957   -1.8467 C.3     1  UNL1       -0.0417
     15 C           0.8245   -7.2050   -1.5671 C.3     1  UNL1        0.0947
     16 C           4.0408    2.9899    1.6792 C.3     1  UNL1       -0.0530
     17 C           4.2333    4.0870    2.7102 C.3     1  UNL1       -0.0528
     18 C           4.7836    1.6703    2.0513 C.3     1  UNL1       -0.0526
     19 C          10.7004   -1.2180   -0.1329 C.3     1  UNL1       -0.0530
     20 C          11.5778   -2.4381   -0.3137 C.3     1  UNL1       -0.0528
     21 C           9.6711    3.2906   -1.2587 C.3     1  UNL1       -0.0528
     22 C          11.0113    2.6835   -0.9463 C.3     1  UNL1       -0.0530
     23 C           5.7087    4.4037    3.0417 C.3     1  UNL1       -0.0496
     24 C          18.0429   -1.9612    4.7441 C.3     1  UNL1       -0.0530
     25 C          17.4632   -2.6705    3.5194 C.3     1  UNL1       -0.0528
     26 C           9.2573   -1.4293   -0.5021 C.3     1  UNL1       -0.0526
     27 C          13.0170   -2.0627    0.0005 C.3     1  UNL1       -0.0496
     28 C           9.4008    4.5258   -0.4039 C.3     1  UNL1       -0.0496
     29 C          11.3787    1.6027   -1.9718 C.3     1  UNL1       -0.0531
     30 C          19.5670   -1.9098    4.6803 C.3     1  UNL1       -0.0531
     31 C           4.1501    0.9507    3.2225 C.3     1  UNL1       -0.0430
     32 C          15.9505   -2.7164    3.6239 C.3     1  UNL1       -0.0496
     33 C           8.4620   -0.1280   -0.3421 C.3     1  UNL1       -0.0430
     34 C           6.5328    4.8822    1.8404 C.3     1  UNL1       -0.0348
     35 C          13.3833   -1.4554    1.3343 C.3     1  UNL1       -0.0348
     36 C           8.0521    5.1619   -0.7638 C.3     1  UNL1       -0.0348
     37 C          12.7555    0.9942   -1.6578 C.3     1  UNL1       -0.0533
     38 C          20.1489   -1.2071    5.9070 C.3     1  UNL1       -0.0533
     39 C          15.3003   -3.4440    2.4567 C.3     1  UNL1       -0.0348
     40 C           2.7119    0.5946    2.8825 C.3     1  UNL1        0.0450
     41 C           6.9745   -0.2883   -0.6204 C.3     1  UNL1        0.0449
     42 C           3.1350   -2.5065    0.6843 C.3     1  UNL1        0.1604
     43 C           6.6075    3.9094    0.7061 C.2     1  UNL1       -0.0879
     44 C           7.0314    4.1369   -0.5011 C.2     1  UNL1       -0.0879
     45 C          13.1176   -0.1847   -2.5898 C.3     1  UNL1       -0.0559
     46 C          12.9896   -2.4624    2.3189 C.2     1  UNL1       -0.0879
     47 C          21.6755   -1.1593    5.8548 C.3     1  UNL1       -0.0559
     48 C          13.8288   -3.4353    2.7411 C.2     1  UNL1       -0.0879
     49 C           2.2922   -2.3715   -0.6163 C.3     1  UNL1        0.0951
     50 C           4.6105   -2.8617    0.4639 C.3     1  UNL1        0.1315
     51 C           2.5938   -0.1873    1.5677 C.2     1  UNL1        0.3075
     52 C           6.3573   -1.2758    0.3237 C.2     1  UNL1        0.3072
     53 C          14.5205   -0.7870   -2.3513 C.3     1  UNL1       -0.0653
     54 C          22.2492   -0.4608    7.0777 C.3     1  UNL1       -0.0653
     55 H          -0.2644   -8.5559   -0.3144 H       1  UNL1        0.0838
     56 H           0.0170   -7.0147    0.4787 H       1  UNL1        0.0838
     57 H          -2.5271   -6.5706    1.2658 H       1  UNL1        0.0778
     58 H          -3.5396   -7.7672    0.4032 H       1  UNL1        0.0778
     59 H          -1.9840   -8.2697    1.1292 H       1  UNL1        0.0778
     60 H          -1.5195   -5.3752   -1.9167 H       1  UNL1        0.0778
     61 H          -3.0946   -5.4705   -1.0545 H       1  UNL1        0.0778
     62 H          -1.6250   -5.0568   -0.1376 H       1  UNL1        0.0778
     63 H          -1.6688   -8.0625   -2.6234 H       1  UNL1        0.0778
     64 H          -2.8186   -8.8399   -1.4716 H       1  UNL1        0.0778
     65 H          -3.2441   -7.3053   -2.2579 H       1  UNL1        0.0778
     66 H           0.6318   -7.7944   -2.4726 H       1  UNL1        0.0618
     67 H           1.7608   -7.6298   -1.1737 H       1  UNL1        0.0618
     68 H           4.3383    3.3375    0.6852 H       1  UNL1        0.0265
     69 H           2.9806    2.8102    1.5116 H       1  UNL1        0.0265
     70 H           3.7427    5.0026    2.3489 H       1  UNL1        0.0265
     71 H           3.7120    3.8134    3.6353 H       1  UNL1        0.0265
     72 H          11.0712   -0.4916   -0.8307 H       1  UNL1        0.0265
     73 H          10.8144   -0.7422    0.8428 H       1  UNL1        0.0265
     74 H           5.8361    1.8057    2.3268 H       1  UNL1        0.0265
     75 H           4.8082    1.0175    1.1716 H       1  UNL1        0.0265
     76 H          11.2352   -3.2826    0.2771 H       1  UNL1        0.0265
     77 H          11.5431   -2.7411   -1.3718 H       1  UNL1        0.0265
     78 H           8.9037    2.5362   -1.0589 H       1  UNL1        0.0265
     79 H           9.5849    3.5419   -2.3183 H       1  UNL1        0.0265
     80 H          11.7882    3.4660   -0.9764 H       1  UNL1        0.0265
     81 H          11.0046    2.2749    0.0731 H       1  UNL1        0.0265
     82 H           5.7204    5.1924    3.8193 H       1  UNL1        0.0268
     83 H           6.1854    3.5409    3.5091 H       1  UNL1        0.0268
     84 H          17.6392   -0.9423    4.8078 H       1  UNL1        0.0265
     85 H          17.7278   -2.4854    5.6557 H       1  UNL1        0.0265
     86 H          17.8549   -3.6904    3.4539 H       1  UNL1        0.0265
     87 H          17.7592   -2.1416    2.6062 H       1  UNL1        0.0265
     88 H           8.8676   -2.2202    0.1348 H       1  UNL1        0.0265
     89 H           9.1975   -1.7492   -1.5510 H       1  UNL1        0.0265
     90 H          13.7167   -2.8446   -0.3223 H       1  UNL1        0.0268
     91 H          13.1819   -1.2273   -0.6167 H       1  UNL1        0.0268
     92 H          10.1958    5.2598   -0.5408 H       1  UNL1        0.0268
     93 H           9.4190    4.2309    0.6583 H       1  UNL1        0.0268
     94 H          10.5797    0.8570   -1.9851 H       1  UNL1        0.0265
     95 H          11.3645    1.9985   -2.9851 H       1  UNL1        0.0265
     96 H          19.9622   -2.9306    4.6161 H       1  UNL1        0.0265
     97 H          19.8770   -1.3829    3.7700 H       1  UNL1        0.0265
     98 H           4.2043    1.5933    4.1115 H       1  UNL1        0.0270
     99 H           4.7363    0.0550    3.4613 H       1  UNL1        0.0270
    100 H          15.5658   -1.6882    3.6802 H       1  UNL1        0.0268
    101 H          15.6547   -3.2168    4.5563 H       1  UNL1        0.0268
    102 H           8.8203    0.5768   -1.0851 H       1  UNL1        0.0270
    103 H           8.6428    0.3178    0.6423 H       1  UNL1        0.0270
    104 H           6.0615    5.8050    1.4744 H       1  UNL1        0.0307
    105 H           7.5389    5.1341    2.1875 H       1  UNL1        0.0307
    106 H          14.4525   -1.2026    1.3382 H       1  UNL1        0.0307
    107 H          12.8882   -0.4966    1.5144 H       1  UNL1        0.0307
    108 H           8.0164    5.4737   -1.8089 H       1  UNL1        0.0307
    109 H           7.8791    6.0417   -0.1392 H       1  UNL1        0.0307
    110 H          13.5177    1.7665   -1.7480 H       1  UNL1        0.0265
    111 H          12.7715    0.7150   -0.5946 H       1  UNL1        0.0265
    112 H          19.7510   -0.1868    5.9684 H       1  UNL1        0.0265
    113 H          19.8304   -1.7328    6.8155 H       1  UNL1        0.0265
    114 H          15.6497   -4.4766    2.3740 H       1  UNL1        0.0307
    115 H          15.5623   -2.9682    1.5022 H       1  UNL1        0.0307
    116 H           2.1266    1.5174    2.7957 H       1  UNL1        0.0377
    117 H           2.2534    0.0457    3.7061 H       1  UNL1        0.0377
    118 H           6.8380   -0.6052   -1.6428 H       1  UNL1        0.0377
    119 H           6.4602    0.7014   -0.5661 H       1  UNL1        0.0377
    120 H           2.7172   -3.3527    1.2293 H       1  UNL1        0.0792
    121 H           6.2952    2.8885    0.8549 H       1  UNL1        0.0569
    122 H           6.8959    3.3262   -1.2509 H       1  UNL1        0.0569
    123 H          12.3578   -0.9807   -2.5258 H       1  UNL1        0.0263
    124 H          13.0563    0.1428   -3.6254 H       1  UNL1        0.0263
    125 H          11.9313   -2.5207    2.5647 H       1  UNL1        0.0569
    126 H          22.0780   -2.1775    5.8008 H       1  UNL1        0.0263
    127 H          22.0032   -0.6324    4.9510 H       1  UNL1        0.0263
    128 H          13.4380   -4.2276    3.3654 H       1  UNL1        0.0569
    129 H           2.7051   -1.5772   -1.2550 H       1  UNL1        0.0602
    130 H           1.2748   -2.0639   -0.3656 H       1  UNL1        0.0602
    131 H           5.0756   -3.0146    1.4453 H       1  UNL1        0.0736
    132 H           4.7371   -3.7902   -0.0928 H       1  UNL1        0.0736
    133 H          14.8150   -1.0201   -1.3171 H       1  UNL1        0.0230
    134 H          14.6052   -1.7347   -2.8970 H       1  UNL1        0.0230
    135 H          15.2895   -0.0888   -2.6649 H       1  UNL1        0.0230
    136 H          21.9590   -0.9798    7.9969 H       1  UNL1        0.0230
    137 H          23.3423   -0.4437    7.0282 H       1  UNL1        0.0230
    138 H          21.8958    0.5734    7.1414 H       1  UNL1        0.0230
@<TRIPOS>UNITY_ATOM_ATTR
6 1
charge -1
10 1
charge 1
@<TRIPOS>BOND
     1     1     2    1
     2     1     3    1
     3     1     6    1
     4     1     7    2
     5     2    15    1
     6     3    49    1
     7     4    51    1
     8     5    50    1
     9     5    52    1
    10     8    51    2
    11     9    52    2
    12    10    11    1
    13    10    12    1
    14    10    13    1
    15    10    14    1
    16    11    15    1
    17    11    55    1
    18    11    56    1
    19    12    57    1
    20    12    58    1
    21    12    59    1
    22    13    60    1
    23    13    61    1
    24    13    62    1
    25    14    63    1
    26    14    64    1
    27    14    65    1
    28    15    66    1
    29    15    67    1
    30    16    17    1
    31    16    18    1
    32    16    68    1
    33    16    69    1
    34    17    23    1
    35    17    70    1
    36    17    71    1
    37    18    31    1
    38    18    74    1
    39    18    75    1
    40    19    20    1
    41    19    26    1
    42    19    72    1
    43    19    73    1
    44    20    27    1
    45    20    76    1
    46    20    77    1
    47    21    22    1
    48    21    28    1
    49    21    78    1
    50    21    79    1
    51    22    29    1
    52    22    80    1
    53    22    81    1
    54    23    34    1
    55    23    82    1
    56    23    83    1
    57    24    25    1
    58    24    30    1
    59    24    84    1
    60    24    85    1
    61    25    32    1
    62    25    86    1
    63    25    87    1
    64    26    33    1
    65    26    88    1
    66    26    89    1
    67    27    35    1
    68    27    90    1
    69    27    91    1
    70    28    36    1
    71    28    92    1
    72    28    93    1
    73    29    37    1
    74    29    94    1
    75    29    95    1
    76    30    38    1
    77    30    96    1
    78    30    97    1
    79    31    40    1
    80    31    98    1
    81    31    99    1
    82    32    39    1
    83    32   100    1
    84    32   101    1
    85    33    41    1
    86    33   102    1
    87    33   103    1
    88    34    43    1
    89    34   104    1
    90    34   105    1
    91    35    46    1
    92    35   106    1
    93    35   107    1
    94    36    44    1
    95    36   108    1
    96    36   109    1
    97    37    45    1
    98    37   110    1
    99    37   111    1
   100    38    47    1
   101    38   112    1
   102    38   113    1
   103    39    48    1
   104    39   114    1
   105    39   115    1
   106    40    51    1
   107    40   116    1
   108    40   117    1
   109    41    52    1
   110    41   118    1
   111    41   119    1
   112    42    50    1
   113    42   120    1
   114    43    44    2
   115    43   121    1
   116    44   122    1
   117    45    53    1
   118    45   123    1
   119    45   124    1
   120    46    48    2
   121    46   125    1
   122    47    54    1
   123    47   126    1
   124    47   127    1
   125    48   128    1
   126    49   129    1
   127    49   130    1
   128    50   131    1
   129    50   132    1
   130    53   133    1
   131    53   134    1
   132    53   135    1
   133    54   136    1
   134    54   137    1
   135    54   138    1
   136    42    49    1
   137    42     4    1
