@<TRIPOS>MOLECULE
dope
 129 128 0 0 0
SMALL
GASTEIGER

@<TRIPOS>ATOM
      1 P           2.4596    0.5605    0.4601 P.3     1  UNL1        0.4751
      2 O          -1.5076    3.9699    1.0061 O.3     1  UNL1       -0.4555
      3 O          -2.8608    1.5438    2.4874 O.3     1  UNL1       -0.4608
      4 O           1.1282    1.4579   -0.0030 O.3     1  UNL1       -0.2828
      5 O          -0.6811    4.2253    3.0992 O.2     1  UNL1       -0.2508
      6 O          -3.7396    1.4935    0.4038 O.2     1  UNL1       -0.2509
      7 O           2.9226   -0.2318   -0.8893 O.3     1  UNL1       -0.2854
      8 O           3.4417    1.8901   -0.0505 O.3     1  UNL1       -0.3025
      9 O           1.5806   -0.6294    0.9171 O.2     1  UNL1       -0.2273
     10 N           0.4216    1.2167   -2.5110 N.3     1  UNL1       -0.3279
     11 C          -4.7634    6.2579    2.6028 C.3     1  UNL1       -0.0530
     12 C          -5.0042    7.7134    3.0556 C.3     1  UNL1       -0.0528
     13 C          -7.0626    2.6163    3.9846 C.3     1  UNL1       -0.0530
     14 C          -8.4467    1.9528    3.9938 C.3     1  UNL1       -0.0528
     15 C          -4.1180    6.1508    1.2205 C.3     1  UNL1       -0.0526
     16 C          -1.0392    8.2325    9.9265 C.3     1  UNL1       -0.0530
     17 C          -1.5211    7.0227    9.1309 C.3     1  UNL1       -0.0528
     18 C         -13.0692    4.6659   -2.1277 C.3     1  UNL1       -0.0530
     19 C         -12.6929    3.4787   -1.2547 C.3     1  UNL1       -0.0528
     20 C          -5.5847    7.7829    4.4709 C.3     1  UNL1       -0.0496
     21 C          -5.9248    1.7071    4.4714 C.3     1  UNL1       -0.0526
     22 C          -9.6053    2.9240    3.7089 C.3     1  UNL1       -0.0496
     23 C           0.4572    8.1689   10.1965 C.3     1  UNL1       -0.0531
     24 C          -3.0303    7.0798    8.8694 C.3     1  UNL1       -0.0496
     25 C         -13.1490    4.2301   -3.5880 C.3     1  UNL1       -0.0531
     26 C         -12.6068    3.8660    0.2194 C.3     1  UNL1       -0.0496
     27 C          -2.6939    6.7106    1.0921 C.3     1  UNL1       -0.0430
     28 C          -5.5566    0.4788    3.6289 C.3     1  UNL1       -0.0430
     29 C          -4.7029    7.1345    5.5401 C.3     1  UNL1       -0.0348
     30 C          -9.5613    3.6165    2.3457 C.3     1  UNL1       -0.0348
     31 C           0.9008    9.4000   10.9833 C.3     1  UNL1       -0.0533
     32 C          -3.4851    8.3270    8.1051 C.3     1  UNL1       -0.0348
     33 C         -13.5367    5.4002   -4.4824 C.3     1  UNL1       -0.0533
     34 C         -12.1919    2.6774    1.0866 C.3     1  UNL1       -0.0348
     35 C          -1.6250    6.1673    2.0425 C.3     1  UNL1        0.0450
     36 C          -5.1252    0.6200    2.1635 C.3     1  UNL1        0.0449
     37 C          -3.3682    7.8209    5.6433 C.2     1  UNL1       -0.0879
     38 C           2.3969    9.3518   11.2721 C.3     1  UNL1       -0.0559
     39 C         -13.6286    4.9682   -5.9429 C.3     1  UNL1       -0.0559
     40 C          -2.8514    8.3689    6.7488 C.2     1  UNL1       -0.0879
     41 C          -9.6687    2.6180    1.2297 C.2     1  UNL1       -0.0879
     42 C         -10.8242    2.1851    0.6977 C.2     1  UNL1       -0.0879
     43 C          -0.9911    2.5906    0.8893 C.3     1  UNL1        0.1605
     44 C          -1.2683    4.6808    2.1293 C.2     1  UNL1        0.3075
     45 C          -3.8616    1.3096    1.6061 C.2     1  UNL1        0.3072
     46 C           2.8421   10.5674   12.0648 C.3     1  UNL1       -0.0653
     47 C         -14.0265    6.1348   -6.8290 C.3     1  UNL1       -0.0653
     48 C          -1.4738    1.5961    2.0003 C.3     1  UNL1        0.1315
     49 C           0.6021    2.5755    0.7437 C.3     1  UNL1        0.0993
     50 C           2.6017   -0.0788   -2.2550 C.3     1  UNL1        0.0713
     51 C           1.1446   -0.0256   -2.7591 C.3     1  UNL1        0.0172
     52 H          -5.7346    5.7393    2.5910 H       1  UNL1        0.0265
     53 H          -4.1283    5.7353    3.3142 H       1  UNL1        0.0265
     54 H          -4.0774    8.2996    3.0114 H       1  UNL1        0.0265
     55 H          -5.7003    8.2059    2.3671 H       1  UNL1        0.0265
     56 H          -7.1047    3.4790    4.6630 H       1  UNL1        0.0265
     57 H          -6.8229    3.0072    2.9908 H       1  UNL1        0.0265
     58 H          -8.4716    1.1260    3.2767 H       1  UNL1        0.0265
     59 H          -8.6319    1.5136    4.9823 H       1  UNL1        0.0265
     60 H          -4.7632    6.6598    0.4925 H       1  UNL1        0.0265
     61 H          -4.1002    5.1015    0.9164 H       1  UNL1        0.0265
     62 H          -1.2432    9.1568    9.3753 H       1  UNL1        0.0265
     63 H          -1.5912    8.2899   10.8721 H       1  UNL1        0.0265
     64 H          -1.2936    6.1024    9.6827 H       1  UNL1        0.0265
     65 H          -0.9724    6.9551    8.1842 H       1  UNL1        0.0265
     66 H         -14.0314    5.0775   -1.8025 H       1  UNL1        0.0265
     67 H         -12.3190    5.4589   -2.0174 H       1  UNL1        0.0265
     68 H         -11.7298    3.0883   -1.6034 H       1  UNL1        0.0265
     69 H         -13.4289    2.6747   -1.3744 H       1  UNL1        0.0265
     70 H          -5.7559    8.8350    4.7339 H       1  UNL1        0.0268
     71 H          -6.5661    7.2951    4.4817 H       1  UNL1        0.0268
     72 H          -6.2092    1.3409    5.4678 H       1  UNL1        0.0265
     73 H          -5.0236    2.3137    4.6202 H       1  UNL1        0.0265
     74 H         -10.5451    2.3588    3.7889 H       1  UNL1        0.0268
     75 H          -9.6506    3.6894    4.4925 H       1  UNL1        0.0268
     76 H           0.6957    7.2571   10.7560 H       1  UNL1        0.0265
     77 H           1.0009    8.1224    9.2451 H       1  UNL1        0.0265
     78 H          -3.5664    7.0351    9.8242 H       1  UNL1        0.0268
     79 H          -3.3183    6.1804    8.3090 H       1  UNL1        0.0268
     80 H         -12.1801    3.8245   -3.9064 H       1  UNL1        0.0265
     81 H         -13.8846    3.4227   -3.6908 H       1  UNL1        0.0265
     82 H         -13.5779    4.2420    0.5637 H       1  UNL1        0.0268
     83 H         -11.8903    4.6894    0.3438 H       1  UNL1        0.0268
     84 H          -2.7525    7.7971    1.2514 H       1  UNL1        0.0270
     85 H          -2.3717    6.5874    0.0589 H       1  UNL1        0.0270
     86 H          -6.4475   -0.1719    3.6260 H       1  UNL1        0.0270
     87 H          -4.7975   -0.0911    4.1772 H       1  UNL1        0.0270
     88 H          -5.2550    7.1541    6.4842 H       1  UNL1        0.0307
     89 H          -4.5444    6.0718    5.3334 H       1  UNL1        0.0307
     90 H         -10.3798    4.3459    2.2894 H       1  UNL1        0.0307
     91 H          -8.6479    4.2069    2.2248 H       1  UNL1        0.0307
     92 H           0.6626   10.3076   10.4144 H       1  UNL1        0.0265
     93 H           0.3413    9.4559   11.9252 H       1  UNL1        0.0265
     94 H          -3.2417    9.2473    8.6445 H       1  UNL1        0.0307
     95 H          -4.5774    8.3340    8.0353 H       1  UNL1        0.0307
     96 H         -14.5016    5.8060   -4.1550 H       1  UNL1        0.0265
     97 H         -12.7956    6.2021   -4.3792 H       1  UNL1        0.0265
     98 H         -12.9139    1.8588    0.9840 H       1  UNL1        0.0307
     99 H         -12.2237    2.9716    2.1408 H       1  UNL1        0.0307
    100 H          -1.8702    6.4884    3.0599 H       1  UNL1        0.0377
    101 H          -0.6864    6.6758    1.7787 H       1  UNL1        0.0377
    102 H          -5.9751    1.0209    1.5987 H       1  UNL1        0.0377
    103 H          -4.9993   -0.4202    1.8225 H       1  UNL1        0.0377
    104 H          -2.7616    7.8617    4.7431 H       1  UNL1        0.0569
    105 H           2.6354    8.4429   11.8360 H       1  UNL1        0.0263
    106 H           2.9551    9.3074   10.3299 H       1  UNL1        0.0263
    107 H         -12.6628    4.5701   -6.2761 H       1  UNL1        0.0263
    108 H         -14.3653    4.1631   -6.0485 H       1  UNL1        0.0263
    109 H          -1.8682    8.8352    6.6850 H       1  UNL1        0.0569
    110 H          -8.7356    2.2237    0.8387 H       1  UNL1        0.0569
    111 H         -10.7848    1.4518   -0.1055 H       1  UNL1        0.0569
    112 H          -1.4005    2.2461   -0.0663 H       1  UNL1        0.0792
    113 H           2.3150   10.6245   13.0225 H       1  UNL1        0.0230
    114 H           3.9158   10.5117   12.2686 H       1  UNL1        0.0230
    115 H           2.6468   11.4903   11.5095 H       1  UNL1        0.0230
    116 H          -1.2191    0.5778    1.6720 H       1  UNL1        0.0736
    117 H          -0.8789    1.7658    2.9033 H       1  UNL1        0.0736
    118 H         -13.2916    6.9434   -6.7625 H       1  UNL1        0.0230
    119 H         -14.0895    5.8144   -7.8734 H       1  UNL1        0.0230
    120 H         -15.0027    6.5329   -6.5339 H       1  UNL1        0.0230
    121 H           1.0926    2.6439    1.7178 H       1  UNL1        0.0604
    122 H           0.8929    3.4715    0.1786 H       1  UNL1        0.0604
    123 H           3.2140    0.7108   -2.6944 H       1  UNL1        0.0578
    124 H           2.9791   -1.0156   -2.6929 H       1  UNL1        0.0578
    125 H           3.9169    2.2778    0.7046 H       1  UNL1        0.2220
    126 H           1.1777   -0.1297   -3.8514 H       1  UNL1        0.0444
    127 H           0.5658   -0.8682   -2.3690 H       1  UNL1        0.0444
    128 H          -0.5685    1.0735   -2.7109 H       1  UNL1        0.1183
    129 H           0.4624    1.3795   -1.5006 H       1  UNL1        0.1183
@<TRIPOS>BOND
     1     1     4    1
     2     1     7    1
     3     1     8    1
     4     1     9    2
     5     2    44    1
     6     3    45    1
     7     3    48    1
     8     4    49    1
     9     5    44    2
    10     6    45    2
    11     7    50    1
    12     8   125    1
    13    10    51    1
    14    10   128    1
    15    10   129    1
    16    11    12    1
    17    11    15    1
    18    11    52    1
    19    11    53    1
    20    12    20    1
    21    12    54    1
    22    12    55    1
    23    13    14    1
    24    13    21    1
    25    13    56    1
    26    13    57    1
    27    14    22    1
    28    14    58    1
    29    14    59    1
    30    15    27    1
    31    15    60    1
    32    15    61    1
    33    16    17    1
    34    16    23    1
    35    16    62    1
    36    16    63    1
    37    17    24    1
    38    17    64    1
    39    17    65    1
    40    18    19    1
    41    18    25    1
    42    18    66    1
    43    18    67    1
    44    19    26    1
    45    19    68    1
    46    19    69    1
    47    20    29    1
    48    20    70    1
    49    20    71    1
    50    21    28    1
    51    21    72    1
    52    21    73    1
    53    22    30    1
    54    22    74    1
    55    22    75    1
    56    23    31    1
    57    23    76    1
    58    23    77    1
    59    24    32    1
    60    24    78    1
    61    24    79    1
    62    25    33    1
    63    25    80    1
    64    25    81    1
    65    26    34    1
    66    26    82    1
    67    26    83    1
    68    27    35    1
    69    27    84    1
    70    27    85    1
    71    28    36    1
    72    28    86    1
    73    28    87    1
    74    29    37    1
    75    29    88    1
    76    29    89    1
    77    30    41    1
    78    30    90    1
    79    30    91    1
    80    31    38    1
    81    31    92    1
    82    31    93    1
    83    32    40    1
    84    32    94    1
    85    32    95    1
    86    33    39    1
    87    33    96    1
    88    33    97    1
    89    34    42    1
    90    34    98    1
    91    34    99    1
    92    35    44    1
    93    35   100    1
    94    35   101    1
    95    36    45    1
    96    36   102    1
    97    36   103    1
    98    37    40    2
    99    37   104    1
   100    38    46    1
   101    38   105    1
   102    38   106    1
   103    39    47    1
   104    39   107    1
   105    39   108    1
   106    40   109    1
   107    41    42    2
   108    41   110    1
   109    42   111    1
   110    43    49    1
   111    43   112    1
   112    46   113    1
   113    46   114    1
   114    46   115    1
   115    47   118    1
   116    47   119    1
   117    47   120    1
   118    48   116    1
   119    48   117    1
   120    49   121    1
   121    49   122    1
   122    50    51    1
   123    50   123    1
   124    50   124    1
   125    51   126    1
   126    51   127    1
   127    43    48    1
   128    43     2    1
