@<TRIPOS>MOLECULE
dppc
 130 129 0 0 0
SMALL
GASTEIGER

@<TRIPOS>ATOM
      1 P           1.3861    0.8065    0.3666 P.3     1  UNL1        0.2128
      2 O           0.3583    1.8925   -0.2498 O.3     1  UNL1       -0.3221
      3 O           4.6033   -0.4272    2.2389 O.3     1  UNL1       -0.4555
      4 O           3.3730   -2.9218    4.1761 O.3     1  UNL1       -0.4608
      5 O           1.3226    0.8348    1.9965 O.3     1  UNL1       -0.3236
      6 O           5.4062    1.6112    2.9843 O.2     1  UNL1       -0.2508
      7 O           4.3732   -2.6169    6.2345 O.2     1  UNL1       -0.2509
      8 O           0.9097   -0.5400   -0.0900 O.co2   1  UNL1       -0.4373
      9 O           2.6744    1.4419   -0.0609 O.2     1  UNL1       -0.5172
     10 N           0.1735    4.9775   -0.4359 N.4     1  UNL1        0.2385
     11 C           4.9430   -3.4356   -3.7202 C.3     1  UNL1       -0.0531
     12 C           3.7948   -4.4462   -3.4971 C.3     1  UNL1       -0.0531
     13 C          -0.8024   -3.5631    8.7614 C.3     1  UNL1       -0.0531
     14 C          -1.7259   -2.8810    9.7556 C.3     1  UNL1       -0.0531
     15 C           5.3252   -2.2185   -2.8285 C.3     1  UNL1       -0.0531
     16 C           3.5970   -5.1459   -2.1500 C.3     1  UNL1       -0.0531
     17 C           0.0715   -4.6379    9.4092 C.3     1  UNL1       -0.0531
     18 C          -2.5532   -1.8230    9.0387 C.3     1  UNL1       -0.0531
     19 C           4.4454   -0.9581   -2.9178 C.3     1  UNL1       -0.0531
     20 C           2.9551   -4.2766   -1.0782 C.3     1  UNL1       -0.0531
     21 C           0.9993   -5.2036    8.3333 C.3     1  UNL1       -0.0531
     22 C          -3.4746   -1.0842   10.0002 C.3     1  UNL1       -0.0531
     23 C           5.1001    0.4081   -2.5419 C.3     1  UNL1       -0.0530
     24 C           1.9707   -6.2444    8.8510 C.3     1  UNL1       -0.0530
     25 C           1.5910   -3.7028   -1.4917 C.3     1  UNL1       -0.0531
     26 C          -4.3023   -0.0347    9.2714 C.3     1  UNL1       -0.0531
     27 C           5.3907    0.8114   -1.0819 C.3     1  UNL1       -0.0526
     28 C           2.9464   -6.7150    7.7499 C.3     1  UNL1       -0.0526
     29 C           0.4737   -4.7302   -1.6118 C.3     1  UNL1       -0.0531
     30 C          -5.2310    0.6778   10.2472 C.3     1  UNL1       -0.0531
     31 C          -0.2724    4.0030    0.7171 C.3     1  UNL1       -0.0064
     32 C           6.4354    0.0700   -0.2667 C.3     1  UNL1       -0.0430
     33 C           3.9077   -5.6661    7.0545 C.3     1  UNL1       -0.0430
     34 C           0.1063   -5.4408   -0.3081 C.3     1  UNL1       -0.0533
     35 C          -6.0649    1.7310    9.5272 C.3     1  UNL1       -0.0533
     36 C          -0.7980    4.9977   -1.5937 C.3     1  UNL1       -0.0417
     37 C           0.2761    6.3874    0.1429 C.3     1  UNL1       -0.0417
     38 C           1.5681    4.5885   -0.9729 C.3     1  UNL1       -0.0417
     39 C          -0.6949    2.5706    0.3418 C.3     1  UNL1        0.0947
     40 C           6.6138    0.6228    1.1545 C.3     1  UNL1        0.0450
     41 C           3.4579   -4.8987    5.7247 C.3     1  UNL1        0.0449
     42 C          -0.3606   -4.4576    0.7681 C.3     1  UNL1       -0.0559
     43 C          -7.0033    2.4409   10.4974 C.3     1  UNL1       -0.0559
     44 C           3.5206   -0.2644    3.2300 C.3     1  UNL1        0.1604
     45 C           5.4465    0.6647    2.1785 C.2     1  UNL1        0.3075
     46 C          -0.5846   -5.1340    2.1026 C.3     1  UNL1       -0.0653
     47 C           3.7993   -3.3459    5.4389 C.2     1  UNL1        0.3072
     48 C          -7.8335    3.4921    9.7827 C.3     1  UNL1       -0.0653
     49 C           2.7611   -1.5824    3.7428 C.3     1  UNL1        0.1315
     50 C           2.5560    0.9717    2.7530 C.3     1  UNL1        0.0951
     51 H           4.7896   -3.0511   -4.7383 H       1  UNL1        0.0265
     52 H           5.8518   -4.0483   -3.7785 H       1  UNL1        0.0265
     53 H           2.8509   -4.0286   -3.8573 H       1  UNL1        0.0265
     54 H           3.9946   -5.2660   -4.2062 H       1  UNL1        0.0265
     55 H          -0.1559   -2.8135    8.2922 H       1  UNL1        0.0265
     56 H          -1.3951   -4.0207    7.9582 H       1  UNL1        0.0265
     57 H          -2.3862   -3.6136   10.2270 H       1  UNL1        0.0265
     58 H          -1.1352   -2.4103   10.5493 H       1  UNL1        0.0265
     59 H           6.3165   -1.9130   -3.1958 H       1  UNL1        0.0265
     60 H           5.4718   -2.5246   -1.7914 H       1  UNL1        0.0265
     61 H           2.9422   -6.0177   -2.3119 H       1  UNL1        0.0265
     62 H           4.5404   -5.5678   -1.7851 H       1  UNL1        0.0265
     63 H          -0.5545   -5.4265    9.8432 H       1  UNL1        0.0265
     64 H           0.6599   -4.2016   10.2262 H       1  UNL1        0.0265
     65 H          -1.8938   -1.1016    8.5407 H       1  UNL1        0.0265
     66 H          -3.1541   -2.2975    8.2429 H       1  UNL1        0.0265
     67 H           3.5166   -1.0983   -2.3546 H       1  UNL1        0.0265
     68 H           4.1503   -0.8462   -3.9710 H       1  UNL1        0.0265
     69 H           2.8552   -4.8562   -0.1536 H       1  UNL1        0.0265
     70 H           3.6281   -3.4524   -0.8376 H       1  UNL1        0.0265
     71 H           1.5711   -4.3795    7.8991 H       1  UNL1        0.0265
     72 H           0.3959   -5.6473    7.5313 H       1  UNL1        0.0265
     73 H          -4.1429   -1.8086   10.4899 H       1  UNL1        0.0265
     74 H          -2.8772   -0.6130   10.7870 H       1  UNL1        0.0265
     75 H           4.3789    1.1629   -2.8928 H       1  UNL1        0.0265
     76 H           5.9992    0.5734   -3.1469 H       1  UNL1        0.0265
     77 H           1.3989   -7.1119    9.2159 H       1  UNL1        0.0265
     78 H           2.5207   -5.8701    9.7223 H       1  UNL1        0.0265
     79 H           1.3160   -2.9528   -0.7614 H       1  UNL1        0.0265
     80 H           1.6705   -3.1520   -2.4303 H       1  UNL1        0.0265
     81 H          -3.6389    0.6944    8.7905 H       1  UNL1        0.0265
     82 H          -4.8894   -0.5086    8.4751 H       1  UNL1        0.0265
     83 H           4.4870    0.6938   -0.5197 H       1  UNL1        0.0265
     84 H           5.6328    1.8891   -1.0800 H       1  UNL1        0.0265
     85 H           2.3883   -7.2850    6.9981 H       1  UNL1        0.0265
     86 H           3.5807   -7.4604    8.2592 H       1  UNL1        0.0265
     87 H          -0.4319   -4.2230   -1.9995 H       1  UNL1        0.0265
     88 H           0.7217   -5.4888   -2.3755 H       1  UNL1        0.0265
     89 H          -5.8913   -0.0540   10.7289 H       1  UNL1        0.0265
     90 H          -4.6384    1.1508   11.0401 H       1  UNL1        0.0265
     91 H          -1.1310    4.4959    1.1881 H       1  UNL1        0.0838
     92 H           0.5618    3.9811    1.4237 H       1  UNL1        0.0838
     93 H           7.3957    0.1547   -0.7954 H       1  UNL1        0.0270
     94 H           6.1827   -0.9900   -0.2079 H       1  UNL1        0.0270
     95 H           4.7443   -6.3114    6.7355 H       1  UNL1        0.0270
     96 H           4.3329   -5.0000    7.8107 H       1  UNL1        0.0270
     97 H          -0.6925   -6.1666   -0.5039 H       1  UNL1        0.0265
     98 H           0.9633   -6.0208    0.0519 H       1  UNL1        0.0265
     99 H          -5.4007    2.4617    9.0498 H       1  UNL1        0.0265
    100 H          -6.6487    1.2550    8.7297 H       1  UNL1        0.0265
    101 H          -1.7664    5.3933   -1.2303 H       1  UNL1        0.0778
    102 H          -0.4089    5.6776   -2.3555 H       1  UNL1        0.0778
    103 H          -0.9090    3.9997   -2.0173 H       1  UNL1        0.0778
    104 H           1.1164    6.4199    0.8429 H       1  UNL1        0.0778
    105 H           0.4378    7.0971   -0.6763 H       1  UNL1        0.0778
    106 H          -0.6625    6.6253    0.6521 H       1  UNL1        0.0778
    107 H           2.1873    4.2626   -0.1348 H       1  UNL1        0.0778
    108 H           1.4654    3.8292   -1.7362 H       1  UNL1        0.0778
    109 H           2.0154    5.4972   -1.4246 H       1  UNL1        0.0778
    110 H          -1.5203    2.6063   -0.3853 H       1  UNL1        0.0618
    111 H          -1.0706    2.0311    1.2098 H       1  UNL1        0.0618
    112 H           6.9572    1.6608    1.0498 H       1  UNL1        0.0377
    113 H           7.4348    0.0835    1.6390 H       1  UNL1        0.0377
    114 H           2.3757   -5.0132    5.6226 H       1  UNL1        0.0377
    115 H           3.9397   -5.4491    4.9055 H       1  UNL1        0.0377
    116 H           0.3815   -3.6709    0.9285 H       1  UNL1        0.0263
    117 H          -1.2847   -3.9685    0.4390 H       1  UNL1        0.0263
    118 H          -7.6706    1.7116   10.9710 H       1  UNL1        0.0263
    119 H          -6.4233    2.9173   11.2966 H       1  UNL1        0.0263
    120 H           4.0411    0.0913    4.1269 H       1  UNL1        0.0792
    121 H           0.3407   -5.5903    2.4693 H       1  UNL1        0.0230
    122 H          -0.9117   -4.3968    2.8442 H       1  UNL1        0.0230
    123 H          -1.3526   -5.9126    2.0320 H       1  UNL1        0.0230
    124 H          -8.4385    3.0408    8.9897 H       1  UNL1        0.0230
    125 H          -8.5084    3.9846   10.4887 H       1  UNL1        0.0230
    126 H          -7.1914    4.2564    9.3333 H       1  UNL1        0.0230
    127 H           2.1335   -1.2667    4.5845 H       1  UNL1        0.0736
    128 H           2.0869   -1.8835    2.9352 H       1  UNL1        0.0736
    129 H           3.1471    1.7258    2.2239 H       1  UNL1        0.0602
    130 H           2.2404    1.4658    3.6768 H       1  UNL1        0.0602
@<TRIPOS>UNITY_ATOM_ATTR
8 1
charge -1
10 1
charge 1
@<TRIPOS>BOND
     1     1     2    1
     2     1     5    1
     3     1     8    1
     4     1     9    2
     5     2    39    1
     6     3    45    1
     7     4    47    1
     8     4    49    1
     9     5    50    1
    10     6    45    2
    11     7    47    2
    12    10    31    1
    13    10    36    1
    14    10    37    1
    15    10    38    1
    16    11    12    1
    17    11    15    1
    18    11    51    1
    19    11    52    1
    20    12    16    1
    21    12    53    1
    22    12    54    1
    23    13    14    1
    24    13    17    1
    25    13    55    1
    26    13    56    1
    27    14    18    1
    28    14    57    1
    29    14    58    1
    30    15    19    1
    31    15    59    1
    32    15    60    1
    33    16    20    1
    34    16    61    1
    35    16    62    1
    36    17    21    1
    37    17    63    1
    38    17    64    1
    39    18    22    1
    40    18    65    1
    41    18    66    1
    42    19    23    1
    43    19    67    1
    44    19    68    1
    45    20    25    1
    46    20    69    1
    47    20    70    1
    48    21    24    1
    49    21    71    1
    50    21    72    1
    51    22    26    1
    52    22    73    1
    53    22    74    1
    54    23    27    1
    55    23    75    1
    56    23    76    1
    57    24    28    1
    58    24    77    1
    59    24    78    1
    60    25    29    1
    61    25    79    1
    62    25    80    1
    63    26    30    1
    64    26    81    1
    65    26    82    1
    66    27    32    1
    67    27    83    1
    68    27    84    1
    69    28    33    1
    70    28    85    1
    71    28    86    1
    72    29    34    1
    73    29    87    1
    74    29    88    1
    75    30    35    1
    76    30    89    1
    77    30    90    1
    78    31    39    1
    79    31    91    1
    80    31    92    1
    81    32    40    1
    82    32    93    1
    83    32    94    1
    84    33    41    1
    85    33    95    1
    86    33    96    1
    87    34    42    1
    88    34    97    1
    89    34    98    1
    90    35    43    1
    91    35    99    1
    92    35   100    1
    93    36   101    1
    94    36   102    1
    95    36   103    1
    96    37   104    1
    97    37   105    1
    98    37   106    1
    99    38   107    1
   100    38   108    1
   101    38   109    1
   102    39   110    1
   103    39   111    1
   104    40    45    1
   105    40   112    1
   106    40   113    1
   107    41    47    1
   108    41   114    1
   109    41   115    1
   110    42    46    1
   111    42   116    1
   112    42   117    1
   113    43    48    1
   114    43   118    1
   115    43   119    1
   116    44    50    1
   117    44   120    1
   118    46   121    1
   119    46   122    1
   120    46   123    1
   121    48   124    1
   122    48   125    1
   123    48   126    1
   124    49   127    1
   125    49   128    1
   126    50   129    1
   127    50   130    1
   128    44    49    1
   129    44     3    1
