@<TRIPOS>MOLECULE
ethanolamine
 11 10 0 0 0
SMALL
GASTEIGER

@<TRIPOS>ATOM
      1 O           1.8198    0.1639   -0.0044 O.3     1  GLY1       -0.3938
      2 N          -1.8460   -0.1503   -0.0043 N.3     1  GLY1       -0.3279
      3 CA         -0.5474    0.5066    0.0045 C.3     1  GLY1        0.0164
      4 C           0.5737   -0.5202    0.0042 C.3     1  GLY1        0.0565
      5 HA1        -0.4629    1.1496    0.8876 H       1  GLY1        0.0444
      6 HA2        -0.4534    1.1639   -0.8676 H       1  GLY1        0.0444
      7 H1          0.5249   -1.1586   -0.8844 H       1  GLY1        0.0570
      8 H2          0.5303   -1.1518    0.8979 H       1  GLY1        0.0570
      9 H1         -1.9373   -0.7214   -0.8436 H       1  GLY1        0.1183
     10 H2         -2.5814    0.5534   -0.0564 H       1  GLY1        0.1183
     11 H           2.5171   -0.5138   -0.0037 H       1  GLY1        0.2095
@<TRIPOS>BOND
     1     1     4    1
     2     1    11    1
     3     2     3    1
     4     2     9    1
     5     2    10    1
     6     3     4    1
     7     3     5    1
     8     3     6    1
     9     4     7    1
    10     4     8    1
