@<TRIPOS>MOLECULE
glycerol_3_phosphate
 19 18 0 0 0
SMALL
GASTEIGER

@<TRIPOS>ATOM
      1 P          -2.2333   -0.0311   -0.0588 P.3     1  UNL1        0.4724
      2 O          -0.7000   -0.4108   -0.3988 O.3     1  UNL1       -0.2841
      3 O           1.8606   -1.4308    0.2120 O.3     1  UNL1       -0.3872
      4 O           4.0690    0.1967   -0.1912 O.3     1  UNL1       -0.3924
      5 O          -2.3559    1.5173   -0.5086 O.3     1  UNL1       -0.3026
      6 O          -2.2296    0.0500    1.5563 O.3     1  UNL1       -0.3026
      7 O          -3.2624   -0.9531   -0.6447 O.2     1  UNL1       -0.2275
      8 C           1.6931   -0.1116   -0.3125 C.3     1  UNL1        0.1020
      9 C           0.3323    0.4192    0.1235 C.3     1  UNL1        0.0871
     10 C           2.8261    0.7543    0.2227 C.3     1  UNL1        0.0723
     11 H           1.7485   -0.2045   -1.4022 H       1  UNL1        0.0639
     12 H           0.1936    1.4415   -0.2419 H       1  UNL1        0.0592
     13 H           0.2588    0.4179    1.2162 H       1  UNL1        0.0592
     14 H           2.8280    0.7905    1.3171 H       1  UNL1        0.0583
     15 H           2.7618    1.7755   -0.1639 H       1  UNL1        0.0583
     16 H           1.8090   -1.3774    1.1817 H       1  UNL1        0.2100
     17 H           4.1102   -0.7117    0.1538 H       1  UNL1        0.2095
     18 H          -3.2296    1.9598   -0.4534 H       1  UNL1        0.2220
     19 H          -3.0803    0.1800    2.0269 H       1  UNL1        0.2220
@<TRIPOS>BOND
     1     1     2    1
     2     1     5    1
     3     1     6    1
     4     1     7    2
     5     2     9    1
     6     3     8    1
     7     3    16    1
     8     4    10    1
     9     4    17    1
    10     5    18    1
    11     6    19    1
    12     8     9    1
    13     8    10    1
    14     8    11    1
    15     9    12    1
    16     9    13    1
    17    10    14    1
    18    10    15    1
