@<TRIPOS>MOLECULE
lysopc_16_0
 83 82 0 0 0
SMALL
GASTEIGER

@<TRIPOS>ATOM
      1 P           5.6325   -4.6756   -8.5094 P.3     1  UNL1        0.2128
      2 O           6.6841   -3.6349   -9.1572 O.3     1  UNL1       -0.3221
      3 O           3.5542   -4.5323   -4.4110 O.3     1  UNL1       -0.4619
      4 O           4.7235   -3.6794   -7.6127 O.3     1  UNL1       -0.3247
      5 O           1.9318   -5.9870   -3.6622 O.2     1  UNL1       -0.2509
      6 O           6.3716   -5.6156   -7.5770 O.co2   1  UNL1       -0.4373
      7 O           4.8561   -5.2383   -9.6579 O.2     1  UNL1       -0.5172
      8 O           2.0440   -5.9269   -6.4868 O.3     1  UNL1       -0.3861
      9 N           9.2993   -5.2498   -9.7628 N.4     1  UNL1        0.2385
     10 C          -4.6133   -0.2879   -0.6437 C.3     1  UNL1       -0.0531
     11 C          -6.0215   -0.5380   -0.0949 C.3     1  UNL1       -0.0531
     12 C          -3.9097   -1.5995   -1.0060 C.3     1  UNL1       -0.0531
     13 C          -6.7243    0.7750    0.2604 C.3     1  UNL1       -0.0531
     14 C          -2.4995   -1.3595   -1.5578 C.3     1  UNL1       -0.0531
     15 C          -8.1297    0.5305    0.8161 C.3     1  UNL1       -0.0531
     16 C          -1.8125   -2.6789   -1.9319 C.3     1  UNL1       -0.0530
     17 C          -8.8276    1.8457    1.1725 C.3     1  UNL1       -0.0531
     18 C           8.9566   -4.4758   -8.4629 C.3     1  UNL1       -0.0064
     19 C         -10.2349    1.6033    1.7253 C.3     1  UNL1       -0.0531
     20 C          -0.4024   -2.4576   -2.4881 C.3     1  UNL1       -0.0526
     21 C           8.0503   -5.9701  -10.2778 C.3     1  UNL1       -0.0417
     22 C           9.8466   -4.3560  -10.8858 C.3     1  UNL1       -0.0417
     23 C          10.4203   -6.2810   -9.4527 C.3     1  UNL1       -0.0417
     24 C         -10.9280    2.9200    2.0840 C.3     1  UNL1       -0.0533
     25 C           0.2896   -3.7845   -2.8323 C.3     1  UNL1       -0.0430
     26 C           7.9210   -3.3307   -8.5555 C.3     1  UNL1        0.0947
     27 C         -12.3385    2.6878    2.6275 C.3     1  UNL1       -0.0559
     28 C           1.6801   -3.5625   -3.4226 C.3     1  UNL1        0.0449
     29 C         -13.0192    4.0012    2.9831 C.3     1  UNL1       -0.0653
     30 C           2.3653   -4.8556   -3.8336 C.2     1  UNL1        0.3072
     31 C           3.4023   -5.5240   -6.6287 C.3     1  UNL1        0.1128
     32 C           4.1248   -5.5311   -5.2725 C.3     1  UNL1        0.1204
     33 C           3.4233   -4.1348   -7.2756 C.3     1  UNL1        0.0840
     34 H          -4.0200    0.2519    0.1043 H       1  UNL1        0.0265
     35 H          -4.6751    0.3529   -1.5314 H       1  UNL1        0.0265
     36 H          -6.6157   -1.0818   -0.8401 H       1  UNL1        0.0265
     37 H          -5.9610   -1.1748    0.7965 H       1  UNL1        0.0265
     38 H          -4.5066   -2.1394   -1.7508 H       1  UNL1        0.0265
     39 H          -3.8492   -2.2378   -0.1161 H       1  UNL1        0.0265
     40 H          -6.1272    1.3209    1.0011 H       1  UNL1        0.0265
     41 H          -6.7890    1.4085   -0.6327 H       1  UNL1        0.0265
     42 H          -1.8981   -0.8314   -0.8080 H       1  UNL1        0.0265
     43 H          -2.5562   -0.7122   -2.4414 H       1  UNL1        0.0265
     44 H          -8.7278   -0.0130    0.0746 H       1  UNL1        0.0265
     45 H          -8.0664   -0.1040    1.7086 H       1  UNL1        0.0265
     46 H          -2.4199   -3.2043   -2.6794 H       1  UNL1        0.0265
     47 H          -1.7624   -3.3260   -1.0464 H       1  UNL1        0.0265
     48 H          -8.2299    2.3881    1.9154 H       1  UNL1        0.0265
     49 H          -8.8886    2.4818    0.2809 H       1  UNL1        0.0265
     50 H           9.9044   -4.0403   -8.1223 H       1  UNL1        0.0838
     51 H           8.6692   -5.2315   -7.7279 H       1  UNL1        0.0838
     52 H         -10.8331    1.0642    0.9807 H       1  UNL1        0.0265
     53 H         -10.1749    0.9658    2.6157 H       1  UNL1        0.0265
     54 H           0.2003   -1.9073   -1.7552 H       1  UNL1        0.0265
     55 H          -0.4638   -1.8339   -3.3883 H       1  UNL1        0.0265
     56 H           7.3810   -5.2314  -10.7200 H       1  UNL1        0.0778
     57 H           8.3556   -6.6689  -11.0620 H       1  UNL1        0.0778
     58 H           7.6014   -6.5211   -9.4534 H       1  UNL1        0.0778
     59 H          10.7728   -3.8842  -10.5300 H       1  UNL1        0.0778
     60 H          10.0592   -4.9963  -11.7507 H       1  UNL1        0.0778
     61 H           9.1012   -3.6050  -11.1440 H       1  UNL1        0.0778
     62 H          11.2982   -6.0618  -10.0656 H       1  UNL1        0.0778
     63 H          10.6975   -6.2018   -8.3957 H       1  UNL1        0.0778
     64 H          10.0555   -7.2868   -9.6752 H       1  UNL1        0.0778
     65 H         -10.3314    3.4564    2.8320 H       1  UNL1        0.0265
     66 H         -10.9813    3.5597    1.1946 H       1  UNL1        0.0265
     67 H          -0.3239   -4.3394   -3.5524 H       1  UNL1        0.0270
     68 H           0.3646   -4.4076   -1.9330 H       1  UNL1        0.0270
     69 H           8.3506   -2.5047   -9.1323 H       1  UNL1        0.0618
     70 H           7.7309   -2.9458   -7.5457 H       1  UNL1        0.0618
     71 H         -12.9437    2.1609    1.8804 H       1  UNL1        0.0263
     72 H         -12.2970    2.0512    3.5191 H       1  UNL1        0.0263
     73 H           2.3197   -3.0395   -2.7001 H       1  UNL1        0.0377
     74 H           1.5927   -2.9453   -4.3235 H       1  UNL1        0.0377
     75 H         -13.0845    4.6582    2.1099 H       1  UNL1        0.0230
     76 H         -14.0352    3.8176    3.3461 H       1  UNL1        0.0230
     77 H         -12.4682    4.5281    3.7687 H       1  UNL1        0.0230
     78 H           3.8692   -6.2703   -7.2799 H       1  UNL1        0.0650
     79 H           4.0910   -6.5164   -4.7936 H       1  UNL1        0.0724
     80 H           5.1772   -5.2640   -5.3950 H       1  UNL1        0.0724
     81 H           2.9595   -3.3932   -6.6226 H       1  UNL1        0.0591
     82 H           2.8064   -4.1350   -8.1842 H       1  UNL1        0.0591
     83 H           2.0401   -6.7416   -5.9483 H       1  UNL1        0.2100
@<TRIPOS>UNITY_ATOM_ATTR
6 1
charge -1
9 1
charge 1
@<TRIPOS>BOND
     1     1     2    1
     2     1     4    1
     3     1     6    1
     4     1     7    2
     5     2    26    1
     6     3    30    1
     7     3    32    1
     8     4    33    1
     9     5    30    2
    10     8    83    1
    11     9    18    1
    12     9    21    1
    13     9    22    1
    14     9    23    1
    15    10    11    1
    16    10    12    1
    17    10    34    1
    18    10    35    1
    19    11    13    1
    20    11    36    1
    21    11    37    1
    22    12    14    1
    23    12    38    1
    24    12    39    1
    25    13    15    1
    26    13    40    1
    27    13    41    1
    28    14    16    1
    29    14    42    1
    30    14    43    1
    31    15    17    1
    32    15    44    1
    33    15    45    1
    34    16    20    1
    35    16    46    1
    36    16    47    1
    37    17    19    1
    38    17    48    1
    39    17    49    1
    40    18    26    1
    41    18    50    1
    42    18    51    1
    43    19    24    1
    44    19    52    1
    45    19    53    1
    46    20    25    1
    47    20    54    1
    48    20    55    1
    49    21    56    1
    50    21    57    1
    51    21    58    1
    52    22    59    1
    53    22    60    1
    54    22    61    1
    55    23    62    1
    56    23    63    1
    57    23    64    1
    58    24    27    1
    59    24    65    1
    60    24    66    1
    61    25    28    1
    62    25    67    1
    63    25    68    1
    64    26    69    1
    65    26    70    1
    66    27    29    1
    67    27    71    1
    68    27    72    1
    69    28    30    1
    70    28    73    1
    71    28    74    1
    72    29    75    1
    73    29    76    1
    74    29    77    1
    75    31    33    1
    76    31    78    1
    77    32    79    1
    78    32    80    1
    79    33    81    1
    80    33    82    1
    81    31    32    1
    82    31     8    1
