@<TRIPOS>MOLECULE
phosphatidic_acid_popa
 117 116 0 0 0
SMALL
GASTEIGER

@<TRIPOS>ATOM
      1 P           2.2632    1.0987    1.7904 P.3     1  UNL1        0.4725
      2 O           0.7527   -4.2256   -0.1228 O.3     1  UNL1       -0.4608
      3 O          -0.0556   -3.4957    2.4018 O.3     1  UNL1       -0.4555
      4 O          -0.8446   -3.2212   -1.4181 O.2     1  UNL1       -0.2509
      5 O           1.4615   -0.2410    1.2359 O.3     1  UNL1       -0.2830
      6 O          -1.5613   -2.1252    3.4450 O.2     1  UNL1       -0.2508
      7 O           2.3726    1.8880    0.3688 O.3     1  UNL1       -0.3026
      8 O           3.6956    0.2723    1.2823 O.3     1  UNL1       -0.3026
      9 O           0.9813    1.8384    2.2451 O.2     1  UNL1       -0.2275
     10 C          -3.3581  -10.3000   -0.3516 C.3     1  UNL1       -0.0531
     11 C          -4.7392  -10.6830    0.1590 C.3     1  UNL1       -0.0531
     12 C          -2.8059   -9.1145    0.4287 C.3     1  UNL1       -0.0531
     13 C          -5.2805  -11.8805   -0.6122 C.3     1  UNL1       -0.0531
     14 C          -6.6657  -12.2579   -0.1084 C.3     1  UNL1       -0.0531
     15 C          -1.4426   -8.7184   -0.1202 C.3     1  UNL1       -0.0531
     16 C          -7.2085  -13.4604   -0.8717 C.3     1  UNL1       -0.0531
     17 C          -0.8815   -7.5150    0.6256 C.3     1  UNL1       -0.0530
     18 C          -8.5956  -13.8445   -0.3648 C.3     1  UNL1       -0.0531
     19 C           0.5055   -7.1300    0.1206 C.3     1  UNL1       -0.0526
     20 C          -9.1370  -15.0443   -1.1332 C.3     1  UNL1       -0.0533
     21 C           0.5724   -6.6846   -1.3470 C.3     1  UNL1       -0.0430
     22 C         -10.5188  -15.4460   -0.6272 C.3     1  UNL1       -0.0559
     23 C          -0.3581   -5.5435   -1.7712 C.3     1  UNL1        0.0449
     24 C           0.1514   -5.5184    6.9747 C.3     1  UNL1       -0.0530
     25 C           1.2491   -6.4654    6.4771 C.3     1  UNL1       -0.0528
     26 C          -0.4833   -4.6052    5.9128 C.3     1  UNL1       -0.0526
     27 C           9.4473   -6.6231    8.2533 C.3     1  UNL1       -0.0530
     28 C           7.9986   -6.4679    7.8026 C.3     1  UNL1       -0.0528
     29 C           2.4578   -5.7871    5.8260 C.3     1  UNL1       -0.0496
     30 C           9.8273   -8.0968    8.3637 C.3     1  UNL1       -0.0531
     31 C           7.6120   -4.9909    7.7338 C.3     1  UNL1       -0.0496
     32 C          -1.0611   -5.3691    4.7218 C.3     1  UNL1       -0.0430
     33 C           3.1779   -4.7548    6.6973 C.3     1  UNL1       -0.0348
     34 C          11.2747   -8.2480    8.8224 C.3     1  UNL1       -0.0533
     35 C           6.1736   -4.7792    7.2661 C.3     1  UNL1       -0.0348
     36 C         -11.0563  -16.6401   -1.3968 C.3     1  UNL1       -0.0653
     37 C          -1.8129   -4.4973    3.7189 C.3     1  UNL1        0.0450
     38 C          -0.1942   -4.2038   -1.0866 C.2     1  UNL1        0.3072
     39 C           3.8152   -5.3396    7.9303 C.2     1  UNL1       -0.0879
     40 C          11.6654   -9.7184    8.9427 C.3     1  UNL1       -0.0559
     41 C           5.1294   -5.3337    8.1923 C.2     1  UNL1       -0.0879
     42 C           0.3302   -2.3993    1.5150 C.3     1  UNL1        0.1605
     43 C           1.2346   -2.9881    0.4159 C.3     1  UNL1        0.1315
     44 C          -1.1264   -3.2387    3.2070 C.2     1  UNL1        0.3075
     45 C          13.1086   -9.8648    9.3930 C.3     1  UNL1       -0.0653
     46 C           1.1065   -1.2468    2.2081 C.3     1  UNL1        0.0993
     47 H          -3.4164  -10.0485   -1.4174 H       1  UNL1        0.0265
     48 H          -2.6760  -11.1541   -0.2581 H       1  UNL1        0.0265
     49 H          -4.6874  -10.9225    1.2277 H       1  UNL1        0.0265
     50 H          -5.4225   -9.8324    0.0489 H       1  UNL1        0.0265
     51 H          -2.7210   -9.3729    1.4911 H       1  UNL1        0.0265
     52 H          -3.4942   -8.2643    0.3538 H       1  UNL1        0.0265
     53 H          -5.3249  -11.6434   -1.6818 H       1  UNL1        0.0265
     54 H          -4.5976  -12.7328   -0.4988 H       1  UNL1        0.0265
     55 H          -1.5427   -8.4913   -1.1876 H       1  UNL1        0.0265
     56 H          -0.7486   -9.5646   -0.0335 H       1  UNL1        0.0265
     57 H          -6.6209  -12.4879    0.9624 H       1  UNL1        0.0265
     58 H          -7.3470  -11.4060   -0.2287 H       1  UNL1        0.0265
     59 H          -7.2562  -13.2275   -1.9426 H       1  UNL1        0.0265
     60 H          -6.5239  -14.3098   -0.7557 H       1  UNL1        0.0265
     61 H          -0.8036   -7.7597    1.6973 H       1  UNL1        0.0265
     62 H          -1.5671   -6.6641    0.5520 H       1  UNL1        0.0265
     63 H          -8.5436  -14.0799    0.7057 H       1  UNL1        0.0265
     64 H          -9.2778  -12.9919   -0.4762 H       1  UNL1        0.0265
     65 H           1.1814   -7.9853    0.2469 H       1  UNL1        0.0265
     66 H           0.9041   -6.3527    0.7779 H       1  UNL1        0.0265
     67 H          -9.1906  -14.8022   -2.2019 H       1  UNL1        0.0265
     68 H          -8.4457  -15.8898   -1.0290 H       1  UNL1        0.0265
     69 H           0.3488   -7.5490   -1.9864 H       1  UNL1        0.0270
     70 H           1.6086   -6.4101   -1.5769 H       1  UNL1        0.0270
     71 H         -10.4668  -15.6949    0.4393 H       1  UNL1        0.0263
     72 H         -11.2136  -14.6045   -0.7311 H       1  UNL1        0.0263
     73 H          -1.4054   -5.8469   -1.6754 H       1  UNL1        0.0377
     74 H          -0.1667   -5.3569   -2.8367 H       1  UNL1        0.0377
     75 H           0.5479   -4.8901    7.7817 H       1  UNL1        0.0265
     76 H          -0.6377   -6.1256    7.4359 H       1  UNL1        0.0265
     77 H           1.5891   -7.0767    7.3216 H       1  UNL1        0.0265
     78 H           0.8213   -7.1756    5.7595 H       1  UNL1        0.0265
     79 H           0.2605   -3.8793    5.5626 H       1  UNL1        0.0265
     80 H          -1.2788   -4.0287    6.3954 H       1  UNL1        0.0265
     81 H          10.1118   -6.1194    7.5407 H       1  UNL1        0.0265
     82 H           9.5837   -6.1339    9.2256 H       1  UNL1        0.0265
     83 H           7.3466   -7.0020    8.5030 H       1  UNL1        0.0265
     84 H           7.8638   -6.9323    6.8182 H       1  UNL1        0.0265
     85 H           3.1713   -6.5656    5.5245 H       1  UNL1        0.0268
     86 H           2.1402   -5.2952    4.8987 H       1  UNL1        0.0268
     87 H           9.1593   -8.5973    9.0755 H       1  UNL1        0.0265
     88 H           9.6913   -8.5872    7.3921 H       1  UNL1        0.0265
     89 H           8.2797   -4.4797    7.0292 H       1  UNL1        0.0268
     90 H           7.7600   -4.5171    8.7115 H       1  UNL1        0.0268
     91 H          -1.7679   -6.1235    5.1029 H       1  UNL1        0.0270
     92 H          -0.2755   -5.9155    4.1966 H       1  UNL1        0.0270
     93 H           3.9274   -4.2620    6.0690 H       1  UNL1        0.0307
     94 H           2.4895   -3.9615    7.0043 H       1  UNL1        0.0307
     95 H          11.9396   -7.7456    8.1093 H       1  UNL1        0.0265
     96 H          11.4062   -7.7511    9.7915 H       1  UNL1        0.0265
     97 H           6.0595   -5.2336    6.2744 H       1  UNL1        0.0307
     98 H           6.0100   -3.6991    7.1618 H       1  UNL1        0.0307
     99 H         -10.3888  -17.5020   -1.2983 H       1  UNL1        0.0230
    100 H         -12.0410  -16.9254   -1.0147 H       1  UNL1        0.0230
    101 H         -11.1581  -16.4044   -2.4609 H       1  UNL1        0.0230
    102 H          -2.7529   -4.1712    4.1798 H       1  UNL1        0.0377
    103 H          -2.1079   -5.0994    2.8505 H       1  UNL1        0.0377
    104 H           3.1447   -5.7656    8.6740 H       1  UNL1        0.0569
    105 H          11.0082  -10.2210    9.6619 H       1  UNL1        0.0263
    106 H          11.5340  -10.2196    7.9767 H       1  UNL1        0.0263
    107 H           5.4655   -5.7587    9.1425 H       1  UNL1        0.0569
    108 H          -0.5700   -2.0120    1.0337 H       1  UNL1        0.0792
    109 H           1.4119   -2.2680   -0.3967 H       1  UNL1        0.0736
    110 H           2.2126   -3.2317    0.8467 H       1  UNL1        0.0736
    111 H          13.2627   -9.3948   10.3695 H       1  UNL1        0.0230
    112 H          13.3741  -10.9226    9.4773 H       1  UNL1        0.0230
    113 H          13.7906   -9.3973    8.6755 H       1  UNL1        0.0230
    114 H           2.0216   -1.6340    2.6759 H       1  UNL1        0.0604
    115 H           0.5095   -0.7886    2.9968 H       1  UNL1        0.0604
    116 H           1.4604    2.1279    0.1030 H       1  UNL1        0.2220
    117 H           4.3624    0.9537    1.0713 H       1  UNL1        0.2220
@<TRIPOS>BOND
     1     1     5    1
     2     1     7    1
     3     1     8    1
     4     1     9    2
     5     2    38    1
     6     2    43    1
     7     3    44    1
     8     4    38    2
     9     5    46    1
    10     6    44    2
    11     7   116    1
    12     8   117    1
    13    10    11    1
    14    10    12    1
    15    10    47    1
    16    10    48    1
    17    11    13    1
    18    11    49    1
    19    11    50    1
    20    12    15    1
    21    12    51    1
    22    12    52    1
    23    13    14    1
    24    13    53    1
    25    13    54    1
    26    14    16    1
    27    14    57    1
    28    14    58    1
    29    15    17    1
    30    15    55    1
    31    15    56    1
    32    16    18    1
    33    16    59    1
    34    16    60    1
    35    17    19    1
    36    17    61    1
    37    17    62    1
    38    18    20    1
    39    18    63    1
    40    18    64    1
    41    19    21    1
    42    19    65    1
    43    19    66    1
    44    20    22    1
    45    20    67    1
    46    20    68    1
    47    21    23    1
    48    21    69    1
    49    21    70    1
    50    22    36    1
    51    22    71    1
    52    22    72    1
    53    23    38    1
    54    23    73    1
    55    23    74    1
    56    24    25    1
    57    24    26    1
    58    24    75    1
    59    24    76    1
    60    25    29    1
    61    25    77    1
    62    25    78    1
    63    26    32    1
    64    26    79    1
    65    26    80    1
    66    27    28    1
    67    27    30    1
    68    27    81    1
    69    27    82    1
    70    28    31    1
    71    28    83    1
    72    28    84    1
    73    29    33    1
    74    29    85    1
    75    29    86    1
    76    30    34    1
    77    30    87    1
    78    30    88    1
    79    31    35    1
    80    31    89    1
    81    31    90    1
    82    32    37    1
    83    32    91    1
    84    32    92    1
    85    33    39    1
    86    33    93    1
    87    33    94    1
    88    34    40    1
    89    34    95    1
    90    34    96    1
    91    35    41    1
    92    35    97    1
    93    35    98    1
    94    36    99    1
    95    36   100    1
    96    36   101    1
    97    37    44    1
    98    37   102    1
    99    37   103    1
   100    39    41    2
   101    39   104    1
   102    40    45    1
   103    40   105    1
   104    40   106    1
   105    41   107    1
   106    42    46    1
   107    42   108    1
   108    43   109    1
   109    43   110    1
   110    45   111    1
   111    45   112    1
   112    45   113    1
   113    46   114    1
   114    46   115    1
   115    42    43    1
   116    42     3    1
