@<TRIPOS>MOLECULE
phosphocholine
 26 25 0 0 0
SMALL
GASTEIGER

@<TRIPOS>ATOM
      1 P           2.5899   -0.0608    0.0096 P.3     1  UNL1        0.4725
      2 O           1.1501   -0.7888    0.1160 O.3     1  UNL1       -0.2815
      3 O           2.5126    1.1099    1.1225 O.3     1  UNL1       -0.3026
      4 O           2.4801    0.7462   -1.3874 O.3     1  UNL1       -0.3026
      5 O           3.7745   -0.9755    0.1218 O.2     1  UNL1       -0.2275
      6 N          -2.4974   -0.0086   -0.0002 N.4     1  UNL1        0.2385
      7 C          -1.2489   -0.8669    0.1435 C.3     1  UNL1       -0.0063
      8 C          -2.4772    0.6945   -1.3499 C.3     1  UNL1       -0.0417
      9 C          -3.7333   -0.8917    0.0933 C.3     1  UNL1       -0.0417
     10 C          -2.5303    1.0296    1.1121 C.3     1  UNL1       -0.0417
     11 C          -0.0202    0.0122    0.0187 C.3     1  UNL1        0.0989
     12 H          -1.2837   -1.3720    1.1162 H       1  UNL1        0.0838
     13 H          -1.2674   -1.6373   -0.6368 H       1  UNL1        0.0838
     14 H          -2.2543   -0.0413   -2.1281 H       1  UNL1        0.0778
     15 H          -3.4696    1.1250   -1.5198 H       1  UNL1        0.0778
     16 H          -1.7468    1.5073   -1.3441 H       1  UNL1        0.0778
     17 H          -3.7274   -1.3910    1.0667 H       1  UNL1        0.0778
     18 H          -4.6226   -0.2624   -0.0066 H       1  UNL1        0.0778
     19 H          -3.6940   -1.6271   -0.7157 H       1  UNL1        0.0778
     20 H          -2.3727    0.5245    2.0696 H       1  UNL1        0.0778
     21 H          -1.7723    1.7968    0.9370 H       1  UNL1        0.0778
     22 H          -3.5164    1.5053    1.1000 H       1  UNL1        0.0778
     23 H           0.0250    0.5211   -0.9452 H       1  UNL1        0.0619
     24 H           0.0304    0.7542    0.8178 H       1  UNL1        0.0619
     25 H           3.3085    1.6579    1.2910 H       1  UNL1        0.2220
     26 H           3.2739    1.2074   -1.7328 H       1  UNL1        0.2220
@<TRIPOS>UNITY_ATOM_ATTR
6 1
charge 1
@<TRIPOS>BOND
     1     1     2    1
     2     1     3    1
     3     1     4    1
     4     1     5    2
     5     2    11    1
     6     3    25    1
     7     4    26    1
     8     6     7    1
     9     6     8    1
    10     6     9    1
    11     6    10    1
    12     7    11    1
    13     7    12    1
    14     7    13    1
    15     8    14    1
    16     8    15    1
    17     8    16    1
    18     9    17    1
    19     9    18    1
    20     9    19    1
    21    10    20    1
    22    10    21    1
    23    10    22    1
    24    11    23    1
    25    11    24    1
