@<TRIPOS>MOLECULE
platelet_activating_factor
 89 88 0 0 0
SMALL
GASTEIGER

@<TRIPOS>ATOM
      1 P           0.0520   -3.5540    4.3751 P.3     1  UNL1        0.2128
      2 O           0.5251   -2.0185    4.1716 O.3     1  UNL1       -0.3221
      3 O           3.9364   -4.4226    0.7294 O.3     1  UNL1       -0.3760
      4 O           0.7043   -4.2082    3.0370 O.3     1  UNL1       -0.3237
      5 O           3.4340   -6.6455    2.3306 O.3     1  UNL1       -0.4569
      6 O          -1.4482   -3.5892    4.2420 O.co2   1  UNL1       -0.4373
      7 O           0.7186   -4.0288    5.6362 O.2     1  UNL1       -0.5172
      8 O           4.4713   -4.8706    3.3999 O.2     1  UNL1       -0.2512
      9 N          -1.5414   -0.1238    5.4378 N.4     1  UNL1        0.2385
     10 C           9.7399   -1.7978    3.4530 C.3     1  UNL1       -0.0531
     11 C           9.4821   -1.5870    1.9672 C.3     1  UNL1       -0.0531
     12 C          10.2238   -0.5339    4.1404 C.3     1  UNL1       -0.0531
     13 C           8.9109   -2.8551    1.3283 C.3     1  UNL1       -0.0531
     14 C          10.4880   -0.8483    5.6067 C.3     1  UNL1       -0.0531
     15 C           7.5412   -3.2835    1.8817 C.3     1  UNL1       -0.0531
     16 C          10.9729    0.3871    6.3415 C.3     1  UNL1       -0.0531
     17 C           6.4064   -2.2861    1.6279 C.3     1  UNL1       -0.0530
     18 C          11.2588    0.0514    7.7974 C.3     1  UNL1       -0.0531
     19 C          -1.6057   -0.7685    4.0182 C.3     1  UNL1       -0.0064
     20 C           6.0829   -2.0660    0.1496 C.3     1  UNL1       -0.0510
     21 C          11.7565    1.2876    8.5310 C.3     1  UNL1       -0.0531
     22 C           5.6719   -3.3166   -0.6417 C.3     1  UNL1       -0.0295
     23 C          -0.8398   -1.0591    6.4383 C.3     1  UNL1       -0.0417
     24 C          -0.8058    1.1940    5.4062 C.3     1  UNL1       -0.0417
     25 C          -2.9821    0.0810    5.9071 C.3     1  UNL1       -0.0417
     26 C          12.0527    0.9615    9.9880 C.3     1  UNL1       -0.0533
     27 C          -0.2644   -1.1675    3.3752 C.3     1  UNL1        0.0947
     28 C           4.2089   -3.7602   -0.5033 C.3     1  UNL1        0.0478
     29 C          12.5624    2.1951   10.7234 C.3     1  UNL1       -0.0559
     30 C           2.5793   -4.9076    0.7986 C.3     1  UNL1        0.0868
     31 C           2.2835   -5.8310    2.0119 C.3     1  UNL1        0.1497
     32 C          12.8585    1.8721   12.1787 C.3     1  UNL1       -0.0653
     33 C           1.6135   -5.2623    3.2779 C.3     1  UNL1        0.0940
     34 C           4.4565   -6.0104    2.9557 C.2     1  UNL1        0.3043
     35 C           5.6791   -6.8675    3.0066 C.3     1  UNL1        0.0332
     36 H           8.8265   -2.1206    3.9615 H       1  UNL1        0.0265
     37 H          10.4795   -2.5979    3.5805 H       1  UNL1        0.0265
     38 H          10.4272   -1.3316    1.4713 H       1  UNL1        0.0265
     39 H           8.8121   -0.7350    1.8088 H       1  UNL1        0.0265
     40 H          11.1353   -0.1607    3.6602 H       1  UNL1        0.0265
     41 H           9.4619    0.2510    4.0587 H       1  UNL1        0.0265
     42 H           9.6212   -3.6765    1.4878 H       1  UNL1        0.0265
     43 H           8.8549   -2.7137    0.2439 H       1  UNL1        0.0265
     44 H           9.5707   -1.2233    6.0790 H       1  UNL1        0.0265
     45 H          11.2371   -1.6464    5.6848 H       1  UNL1        0.0265
     46 H           7.6107   -3.4670    2.9593 H       1  UNL1        0.0265
     47 H           7.2868   -4.2583    1.4566 H       1  UNL1        0.0265
     48 H          11.8812    0.7706    5.8614 H       1  UNL1        0.0265
     49 H          10.2132    1.1757    6.2815 H       1  UNL1        0.0265
     50 H           6.6647   -1.3183    2.0770 H       1  UNL1        0.0265
     51 H           5.5063   -2.6214    2.1525 H       1  UNL1        0.0265
     52 H          10.3488   -0.3293    8.2778 H       1  UNL1        0.0265
     53 H          12.0110   -0.7452    7.8544 H       1  UNL1        0.0265
     54 H          -2.0960   -0.0255    3.3768 H       1  UNL1        0.0838
     55 H          -2.2959   -1.6055    4.0969 H       1  UNL1        0.0838
     56 H           6.9717   -1.6377   -0.3323 H       1  UNL1        0.0266
     57 H           5.3070   -1.2967    0.0603 H       1  UNL1        0.0266
     58 H          12.6627    1.6654    8.0418 H       1  UNL1        0.0265
     59 H          11.0009    2.0805    8.4716 H       1  UNL1        0.0265
     60 H           6.3420   -4.1530   -0.4225 H       1  UNL1        0.0287
     61 H           5.8291   -3.0716   -1.7000 H       1  UNL1        0.0287
     62 H           0.2327   -1.0566    6.2444 H       1  UNL1        0.0778
     63 H          -0.9954   -0.6561    7.4448 H       1  UNL1        0.0778
     64 H          -1.2914   -2.0513    6.3692 H       1  UNL1        0.0778
     65 H          -1.2886    1.8436    4.6689 H       1  UNL1        0.0778
     66 H          -0.8680    1.6468    6.4009 H       1  UNL1        0.0778
     67 H           0.2381    1.0217    5.1340 H       1  UNL1        0.0778
     68 H          -3.2770    1.1135    5.6978 H       1  UNL1        0.0778
     69 H          -3.6480   -0.6034    5.3732 H       1  UNL1        0.0778
     70 H          -3.0500   -0.1111    6.9815 H       1  UNL1        0.0778
     71 H          11.1435    0.5865   10.4738 H       1  UNL1        0.0265
     72 H          12.8013    0.1613   10.0411 H       1  UNL1        0.0265
     73 H           0.3236   -0.2685    3.1609 H       1  UNL1        0.0618
     74 H          -0.4504   -1.6520    2.4094 H       1  UNL1        0.0618
     75 H           4.0109   -4.4650   -1.3205 H       1  UNL1        0.0560
     76 H           3.5381   -2.9033   -0.6148 H       1  UNL1        0.0560
     77 H          13.4729    2.5673   10.2394 H       1  UNL1        0.0263
     78 H          11.8157    2.9960   10.6711 H       1  UNL1        0.0263
     79 H           2.4224   -5.5226   -0.1002 H       1  UNL1        0.0597
     80 H           1.8768   -4.0697    0.7438 H       1  UNL1        0.0597
     81 H           1.5317   -6.5375    1.6241 H       1  UNL1        0.0781
     82 H          13.6118    1.0827   12.2541 H       1  UNL1        0.0230
     83 H          13.2353    2.7596   12.6920 H       1  UNL1        0.0230
     84 H          11.9525    1.5348   12.6910 H       1  UNL1        0.0230
     85 H           2.3357   -4.9396    4.0248 H       1  UNL1        0.0602
     86 H           1.0547   -6.0813    3.7533 H       1  UNL1        0.0602
     87 H           6.1759   -6.7006    3.9638 H       1  UNL1        0.0342
     88 H           5.4121   -7.9224    2.9322 H       1  UNL1        0.0342
     89 H           6.3307   -6.5801    2.1806 H       1  UNL1        0.0342
@<TRIPOS>UNITY_ATOM_ATTR
6 1
charge -1
9 1
charge 1
@<TRIPOS>BOND
     1     1     2    1
     2     1     4    1
     3     1     6    1
     4     1     7    2
     5     2    27    1
     6     3    28    1
     7     3    30    1
     8     4    33    1
     9     5    34    1
    10     8    34    2
    11     9    19    1
    12     9    23    1
    13     9    24    1
    14     9    25    1
    15    10    11    1
    16    10    12    1
    17    10    36    1
    18    10    37    1
    19    11    13    1
    20    11    38    1
    21    11    39    1
    22    12    14    1
    23    12    40    1
    24    12    41    1
    25    13    15    1
    26    13    42    1
    27    13    43    1
    28    14    16    1
    29    14    44    1
    30    14    45    1
    31    15    17    1
    32    15    46    1
    33    15    47    1
    34    16    18    1
    35    16    48    1
    36    16    49    1
    37    17    20    1
    38    17    50    1
    39    17    51    1
    40    18    21    1
    41    18    52    1
    42    18    53    1
    43    19    27    1
    44    19    54    1
    45    19    55    1
    46    20    22    1
    47    20    56    1
    48    20    57    1
    49    21    26    1
    50    21    58    1
    51    21    59    1
    52    22    28    1
    53    22    60    1
    54    22    61    1
    55    23    62    1
    56    23    63    1
    57    23    64    1
    58    24    65    1
    59    24    66    1
    60    24    67    1
    61    25    68    1
    62    25    69    1
    63    25    70    1
    64    26    29    1
    65    26    71    1
    66    26    72    1
    67    27    73    1
    68    27    74    1
    69    28    75    1
    70    28    76    1
    71    29    32    1
    72    29    77    1
    73    29    78    1
    74    30    79    1
    75    30    80    1
    76    31    33    1
    77    31    81    1
    78    32    82    1
    79    32    83    1
    80    32    84    1
    81    33    85    1
    82    33    86    1
    83    34    35    1
    84    35    87    1
    85    35    88    1
    86    35    89    1
    87    31    30    1
    88    31     5    1
