@<TRIPOS>MOLECULE
popc
 134 133 0 0 0
SMALL
GASTEIGER

@<TRIPOS>ATOM
      1 P           0.9265    0.4689   -2.3289 P.3     1  UNL1        0.2128
      2 O           0.6553   -1.0790   -1.8826 O.3     1  UNL1       -0.3221
      3 O           4.4006   -0.4316    1.3328 O.3     1  UNL1       -0.4608
      4 O           5.5875    1.7608   -0.7242 O.3     1  UNL1       -0.4555
      5 O           2.0126    0.9247   -1.2215 O.3     1  UNL1       -0.3236
      6 O           3.8183   -0.0247    3.5123 O.2     1  UNL1       -0.2509
      7 O          -0.3623    1.2167   -2.0614 O.co2   1  UNL1       -0.4373
      8 O           1.5180    0.4209   -3.7049 O.2     1  UNL1       -0.5172
      9 O           5.9990   -0.4341   -1.2723 O.2     1  UNL1       -0.2508
     10 N          -2.3364   -1.8707   -2.4118 N.4     1  UNL1        0.2385
     11 C          11.3054   -1.1381    2.5825 C.3     1  UNL1       -0.0531
     12 C          12.3140   -0.7072    3.6356 C.3     1  UNL1       -0.0531
     13 C          10.0057   -1.5935    3.2268 C.3     1  UNL1       -0.0531
     14 C          13.6010   -0.2457    2.9630 C.3     1  UNL1       -0.0531
     15 C           9.0224   -2.0166    2.1464 C.3     1  UNL1       -0.0531
     16 C          14.6312    0.1707    4.0034 C.3     1  UNL1       -0.0531
     17 C           7.7075   -2.4611    2.7623 C.3     1  UNL1       -0.0530
     18 C          15.9217    0.6353    3.3378 C.3     1  UNL1       -0.0531
     19 C           6.7255   -2.8397    1.6596 C.3     1  UNL1       -0.0526
     20 C          16.9434    1.0602    4.3895 C.3     1  UNL1       -0.0531
     21 C          -1.7583   -1.1760   -1.1480 C.3     1  UNL1       -0.0064
     22 C          18.2380    1.5252    3.7302 C.3     1  UNL1       -0.0533
     23 C           5.3742   -3.2654    2.2101 C.3     1  UNL1       -0.0430
     24 C          -1.5957   -1.3209   -3.6445 C.3     1  UNL1       -0.0417
     25 C          -2.2065   -3.3758   -2.4208 C.3     1  UNL1       -0.0417
     26 C          -3.8286   -1.5331   -2.4617 C.3     1  UNL1       -0.0417
     27 C          -0.2565   -1.3727   -0.8460 C.3     1  UNL1        0.0947
     28 C          19.2707    1.9628    4.7658 C.3     1  UNL1       -0.0559
     29 C           4.6437   -2.2294    3.0664 C.3     1  UNL1        0.0449
     30 C           9.0588   -0.4131   -4.7929 C.3     1  UNL1       -0.0530
     31 C           9.1851   -1.9181   -4.5283 C.3     1  UNL1       -0.0528
     32 C           8.1148    0.3759   -3.8615 C.3     1  UNL1       -0.0526
     33 C           7.8745   -2.7092   -4.5211 C.3     1  UNL1       -0.0496
     34 C           3.9612   -5.3482   -8.4368 C.3     1  UNL1       -0.0528
     35 C           2.9167   -4.7123   -9.3541 C.3     1  UNL1       -0.0530
     36 C           8.5740    0.3521   -2.3970 C.3     1  UNL1       -0.0430
     37 C           5.2782   -4.5835   -8.5171 C.3     1  UNL1       -0.0496
     38 C           1.5830   -5.4587   -9.3056 C.3     1  UNL1       -0.0531
     39 C          20.5525    2.4177    4.0877 C.3     1  UNL1       -0.0653
     40 C           7.1259   -2.7263   -5.8561 C.3     1  UNL1       -0.0348
     41 C           4.2634   -0.7849    2.6433 C.2     1  UNL1        0.3072
     42 C           6.3422   -5.1767   -7.5957 C.3     1  UNL1       -0.0348
     43 C           0.5668   -4.7999  -10.2409 C.3     1  UNL1       -0.0533
     44 C           4.1901    1.5135   -0.3925 C.3     1  UNL1        0.1604
     45 C           7.7725    1.2097   -1.4121 C.3     1  UNL1        0.0450
     46 C           4.0127    0.9578    1.0590 C.3     1  UNL1        0.1315
     47 C           3.3896    0.8723   -1.5427 C.3     1  UNL1        0.0951
     48 C           7.9327   -3.3092   -6.9857 C.2     1  UNL1       -0.0879
     49 C           7.6028   -4.3746   -7.7323 C.2     1  UNL1       -0.0879
     50 C          -0.7810   -5.5189  -10.2262 C.3     1  UNL1       -0.0559
     51 C           6.3568    0.7373   -1.1613 C.2     1  UNL1        0.3075
     52 C          -1.7721   -4.8456  -11.1644 C.3     1  UNL1       -0.0653
     53 H          11.7236   -1.9560    1.9830 H       1  UNL1        0.0265
     54 H          11.1070   -0.3047    1.8971 H       1  UNL1        0.0265
     55 H          11.8955    0.1050    4.2427 H       1  UNL1        0.0265
     56 H          12.5236   -1.5435    4.3137 H       1  UNL1        0.0265
     57 H           9.5762   -0.7798    3.8242 H       1  UNL1        0.0265
     58 H          10.1973   -2.4304    3.9094 H       1  UNL1        0.0265
     59 H          14.0038   -1.0557    2.3425 H       1  UNL1        0.0265
     60 H          13.3859    0.5966    2.2938 H       1  UNL1        0.0265
     61 H           9.4481   -2.8317    1.5487 H       1  UNL1        0.0265
     62 H           8.8391   -1.1758    1.4659 H       1  UNL1        0.0265
     63 H          14.2216    0.9773    4.6234 H       1  UNL1        0.0265
     64 H          14.8434   -0.6743    4.6695 H       1  UNL1        0.0265
     65 H           7.3056   -1.6421    3.3675 H       1  UNL1        0.0265
     66 H           7.8753   -3.3114    3.4364 H       1  UNL1        0.0265
     67 H          16.3340   -0.1757    2.7246 H       1  UNL1        0.0265
     68 H          15.7112    1.4740    2.6625 H       1  UNL1        0.0265
     69 H           7.1501   -3.6696    1.0774 H       1  UNL1        0.0265
     70 H           6.5918   -2.0039    0.9680 H       1  UNL1        0.0265
     71 H          16.5252    1.8684    5.0019 H       1  UNL1        0.0265
     72 H          17.1506    0.2186    5.0615 H       1  UNL1        0.0265
     73 H          -2.3382   -1.5568   -0.2987 H       1  UNL1        0.0838
     74 H          -2.0042   -0.1183   -1.2474 H       1  UNL1        0.0838
     75 H          18.6497    0.7127    3.1194 H       1  UNL1        0.0265
     76 H          18.0234    2.3611    3.0533 H       1  UNL1        0.0265
     77 H           5.5571   -4.1464    2.8486 H       1  UNL1        0.0270
     78 H           4.7374   -3.6282    1.3955 H       1  UNL1        0.0270
     79 H          -0.6289   -1.8278   -3.7179 H       1  UNL1        0.0778
     80 H          -2.1800   -1.5534   -4.5370 H       1  UNL1        0.0778
     81 H          -1.4880   -0.2434   -3.5492 H       1  UNL1        0.0778
     82 H          -2.7203   -3.7742   -1.5389 H       1  UNL1        0.0778
     83 H          -2.7008   -3.7407   -3.3302 H       1  UNL1        0.0778
     84 H          -1.1556   -3.6602   -2.4203 H       1  UNL1        0.0778
     85 H          -4.4021   -2.4384   -2.2250 H       1  UNL1        0.0778
     86 H          -4.0731   -0.7814   -1.7051 H       1  UNL1        0.0778
     87 H          -4.1003   -1.1853   -3.4594 H       1  UNL1        0.0778
     88 H          -0.0886   -2.4216   -0.5713 H       1  UNL1        0.0618
     89 H           0.0134   -0.7787    0.0389 H       1  UNL1        0.0618
     90 H          18.8679    2.7849    5.3688 H       1  UNL1        0.0263
     91 H          19.4936    1.1363    5.4509 H       1  UNL1        0.0263
     92 H           5.2389   -2.1069    3.9806 H       1  UNL1        0.0377
     93 H           3.7122   -2.7120    3.3896 H       1  UNL1        0.0377
     94 H           8.7456   -0.2571   -5.8327 H       1  UNL1        0.0265
     95 H          10.0676    0.0139   -4.7194 H       1  UNL1        0.0265
     96 H           9.8550   -2.3395   -5.2865 H       1  UNL1        0.0265
     97 H           9.6966   -2.0792   -3.5732 H       1  UNL1        0.0265
     98 H           7.0932   -0.0064   -3.9575 H       1  UNL1        0.0265
     99 H           8.0923    1.4138   -4.2187 H       1  UNL1        0.0265
    100 H           8.0993   -3.7430   -4.2290 H       1  UNL1        0.0268
    101 H           7.2072   -2.3187   -3.7430 H       1  UNL1        0.0268
    102 H           4.1260   -6.3932   -8.7237 H       1  UNL1        0.0265
    103 H           3.5954   -5.3452   -7.4031 H       1  UNL1        0.0265
    104 H           2.7600   -3.6671   -9.0591 H       1  UNL1        0.0265
    105 H           3.2925   -4.7008  -10.3848 H       1  UNL1        0.0265
    106 H           9.6096    0.7124   -2.3651 H       1  UNL1        0.0270
    107 H           8.5869   -0.6841   -2.0393 H       1  UNL1        0.0270
    108 H           5.1026   -3.5336   -8.2446 H       1  UNL1        0.0268
    109 H           5.6444   -4.5825   -9.5522 H       1  UNL1        0.0268
    110 H           1.7349   -6.5047   -9.5979 H       1  UNL1        0.0265
    111 H           1.1976   -5.4605   -8.2789 H       1  UNL1        0.0265
    112 H          20.3522    3.2295    3.3810 H       1  UNL1        0.0230
    113 H          21.2700    2.7800    4.8296 H       1  UNL1        0.0230
    114 H          21.0164    1.5924    3.5379 H       1  UNL1        0.0230
    115 H           6.1964   -3.2811   -5.7031 H       1  UNL1        0.0307
    116 H           6.8212   -1.7102   -6.1305 H       1  UNL1        0.0307
    117 H           6.5501   -6.2215   -7.8551 H       1  UNL1        0.0307
    118 H           5.9858   -5.1933   -6.5603 H       1  UNL1        0.0307
    119 H           0.4268   -3.7521   -9.9481 H       1  UNL1        0.0265
    120 H           0.9644   -4.7972  -11.2633 H       1  UNL1        0.0265
    121 H           3.7702    2.5332   -0.3276 H       1  UNL1        0.0792
    122 H           7.7703    2.2584   -1.7314 H       1  UNL1        0.0377
    123 H           8.2664    1.1573   -0.4350 H       1  UNL1        0.0377
    124 H           4.6215    1.6015    1.7103 H       1  UNL1        0.0736
    125 H           2.9611    1.0906    1.3530 H       1  UNL1        0.0736
    126 H           3.6787   -0.1556   -1.7514 H       1  UNL1        0.0602
    127 H           3.5793    1.4555   -2.4586 H       1  UNL1        0.0602
    128 H           8.8460   -2.7795   -7.2490 H       1  UNL1        0.0569
    129 H           8.2639   -4.6627   -8.5481 H       1  UNL1        0.0569
    130 H          -0.6479   -6.5624  -10.5335 H       1  UNL1        0.0263
    131 H          -1.1934   -5.5281   -9.2107 H       1  UNL1        0.0263
    132 H          -1.3766   -4.7969  -12.1842 H       1  UNL1        0.0230
    133 H          -2.7122   -5.4052  -11.1914 H       1  UNL1        0.0230
    134 H          -1.9938   -3.8253  -10.8345 H       1  UNL1        0.0230
@<TRIPOS>UNITY_ATOM_ATTR
7 1
charge -1
10 1
charge 1
@<TRIPOS>BOND
     1     1     2    1
     2     1     5    1
     3     1     7    1
     4     1     8    2
     5     2    27    1
     6     3    41    1
     7     3    46    1
     8     4    51    1
     9     5    47    1
    10     6    41    2
    11     9    51    2
    12    10    21    1
    13    10    24    1
    14    10    25    1
    15    10    26    1
    16    11    12    1
    17    11    13    1
    18    11    53    1
    19    11    54    1
    20    12    14    1
    21    12    55    1
    22    12    56    1
    23    13    15    1
    24    13    57    1
    25    13    58    1
    26    14    16    1
    27    14    59    1
    28    14    60    1
    29    15    17    1
    30    15    61    1
    31    15    62    1
    32    16    18    1
    33    16    63    1
    34    16    64    1
    35    17    19    1
    36    17    65    1
    37    17    66    1
    38    18    20    1
    39    18    67    1
    40    18    68    1
    41    19    23    1
    42    19    69    1
    43    19    70    1
    44    20    22    1
    45    20    71    1
    46    20    72    1
    47    21    27    1
    48    21    73    1
    49    21    74    1
    50    22    28    1
    51    22    75    1
    52    22    76    1
    53    23    29    1
    54    23    77    1
    55    23    78    1
    56    24    79    1
    57    24    80    1
    58    24    81    1
    59    25    82    1
    60    25    83    1
    61    25    84    1
    62    26    85    1
    63    26    86    1
    64    26    87    1
    65    27    88    1
    66    27    89    1
    67    28    39    1
    68    28    90    1
    69    28    91    1
    70    29    41    1
    71    29    92    1
    72    29    93    1
    73    30    31    1
    74    30    32    1
    75    30    94    1
    76    30    95    1
    77    31    33    1
    78    31    96    1
    79    31    97    1
    80    32    36    1
    81    32    98    1
    82    32    99    1
    83    33    40    1
    84    33   100    1
    85    33   101    1
    86    34    35    1
    87    34    37    1
    88    34   102    1
    89    34   103    1
    90    35    38    1
    91    35   104    1
    92    35   105    1
    93    36    45    1
    94    36   106    1
    95    36   107    1
    96    37    42    1
    97    37   108    1
    98    37   109    1
    99    38    43    1
   100    38   110    1
   101    38   111    1
   102    39   112    1
   103    39   113    1
   104    39   114    1
   105    40    48    1
   106    40   115    1
   107    40   116    1
   108    42    49    1
   109    42   117    1
   110    42   118    1
   111    43    50    1
   112    43   119    1
   113    43   120    1
   114    44    47    1
   115    44   121    1
   116    45    51    1
   117    45   122    1
   118    45   123    1
   119    46   124    1
   120    46   125    1
   121    47   126    1
   122    47   127    1
   123    48    49    2
   124    48   128    1
   125    49   129    1
   126    50    52    1
   127    50   130    1
   128    50   131    1
   129    52   132    1
   130    52   133    1
   131    52   134    1
   132    44    46    1
   133    44     4    1
