@<TRIPOS>MOLECULE
pope
 125 124 0 0 0
SMALL
GASTEIGER

@<TRIPOS>ATOM
      1 P           1.8755    1.2349    2.9927 P.3     1  UNL1        0.4751
      2 O          -2.5983   -2.7933    1.8287 O.3     1  UNL1       -0.4608
      3 O           0.2926   -3.3818    2.1376 O.3     1  UNL1       -0.4555
      4 O          -3.0621   -2.8630   -0.4251 O.2     1  UNL1       -0.2509
      5 O           0.6227    0.1961    3.1162 O.3     1  UNL1       -0.2828
      6 O          -0.3993   -4.5489    3.9910 O.2     1  UNL1       -0.2508
      7 O           1.4742    2.5892    3.7669 O.3     1  UNL1       -0.2854
      8 O           1.6930    1.6895    1.4662 O.3     1  UNL1       -0.3025
      9 O           3.2015    0.6456    3.3095 O.2     1  UNL1       -0.2273
     10 N           1.6415    5.2314    2.5232 N.3     1  UNL1       -0.3279
     11 C          -7.9104   -6.5489   -3.6250 C.3     1  UNL1       -0.0531
     12 C          -8.1137   -6.0169   -5.0460 C.3     1  UNL1       -0.0531
     13 C          -6.4687   -6.4052   -3.1187 C.3     1  UNL1       -0.0531
     14 C          -7.2517   -6.7380   -6.0851 C.3     1  UNL1       -0.0531
     15 C          -7.5753   -8.2355   -6.1972 C.3     1  UNL1       -0.0531
     16 C          -5.9938   -4.9532   -2.9781 C.3     1  UNL1       -0.0531
     17 C          -9.0166   -8.5175   -6.6187 C.3     1  UNL1       -0.0531
     18 C          -6.7290   -4.1340   -1.9052 C.3     1  UNL1       -0.0530
     19 C          -9.2966   -7.9329   -7.9938 C.3     1  UNL1       -0.0531
     20 C          -6.6244   -4.6588   -0.4628 C.3     1  UNL1       -0.0526
     21 C         -10.7459   -8.1013   -8.4146 C.3     1  UNL1       -0.0533
     22 C          -5.2294   -5.0023    0.1300 C.3     1  UNL1       -0.0430
     23 C         -10.9391   -7.5024   -9.8054 C.3     1  UNL1       -0.0559
     24 C          -4.5463   -4.0346    1.1434 C.3     1  UNL1        0.0449
     25 C          -1.2229   -7.3167    0.8744 C.3     1  UNL1       -0.0530
     26 C          -0.3311   -8.0748   -0.1024 C.3     1  UNL1       -0.0528
     27 C          -0.8147   -7.4594    2.3445 C.3     1  UNL1       -0.0526
     28 C          -3.2579   -4.4534   -7.7875 C.3     1  UNL1       -0.0530
     29 C          -1.7880   -4.7287   -7.4504 C.3     1  UNL1       -0.0528
     30 C          -0.8192   -8.0386   -1.5554 C.3     1  UNL1       -0.0496
     31 C          -3.6148   -2.9664   -7.8925 C.3     1  UNL1       -0.0531
     32 C          -1.2918   -4.1535   -6.1117 C.3     1  UNL1       -0.0496
     33 C           0.6084   -7.0257    2.7129 C.3     1  UNL1       -0.0430
     34 C          -0.7414   -6.6873   -2.3119 C.3     1  UNL1       -0.0348
     35 C          -2.7985   -2.1775   -8.9233 C.3     1  UNL1       -0.0533
     36 C          -1.9303   -4.7396   -4.8351 C.3     1  UNL1       -0.0348
     37 C         -12.3708   -7.6679  -10.2713 C.3     1  UNL1       -0.0653
     38 C          -3.3255   -3.1911    0.7216 C.2     1  UNL1        0.3072
     39 C           1.0154   -5.6119    2.3096 C.3     1  UNL1        0.0450
     40 C          -1.1120   -6.9555   -3.7486 C.2     1  UNL1       -0.0879
     41 C          -3.0074   -2.6636  -10.3592 C.3     1  UNL1       -0.0559
     42 C          -1.6376   -6.2047   -4.7274 C.2     1  UNL1       -0.0879
     43 C          -0.2988   -2.1333    2.6064 C.3     1  UNL1        0.1605
     44 C          -1.5053   -1.8161    1.6778 C.3     1  UNL1        0.1315
     45 C           0.1932   -4.4908    2.9247 C.2     1  UNL1        0.3075
     46 C           0.8675   -1.0970    2.5567 C.3     1  UNL1        0.0993
     47 C          -2.1502   -1.8804  -11.3407 C.3     1  UNL1       -0.0653
     48 C           2.5116    3.5146    4.1175 C.3     1  UNL1        0.0713
     49 C           2.8338    4.5282    2.9993 C.3     1  UNL1        0.0172
     50 H          -8.1937   -7.6069   -3.5850 H       1  UNL1        0.0265
     51 H          -8.6076   -6.0447   -2.9487 H       1  UNL1        0.0265
     52 H          -9.1771   -6.0969   -5.3134 H       1  UNL1        0.0265
     53 H          -7.8968   -4.9403   -5.0872 H       1  UNL1        0.0265
     54 H          -5.7851   -6.9300   -3.7957 H       1  UNL1        0.0265
     55 H          -6.3730   -6.9280   -2.1615 H       1  UNL1        0.0265
     56 H          -7.3577   -6.2432   -7.0480 H       1  UNL1        0.0265
     57 H          -6.1823   -6.6279   -5.8459 H       1  UNL1        0.0265
     58 H          -6.0986   -4.4410   -3.9429 H       1  UNL1        0.0265
     59 H          -4.9194   -4.9475   -2.7684 H       1  UNL1        0.0265
     60 H          -6.8868   -8.6943   -6.9282 H       1  UNL1        0.0265
     61 H          -7.3679   -8.7399   -5.2595 H       1  UNL1        0.0265
     62 H          -9.1838   -9.6038   -6.6285 H       1  UNL1        0.0265
     63 H          -9.7173   -8.1163   -5.8773 H       1  UNL1        0.0265
     64 H          -7.7961   -4.1076   -2.1791 H       1  UNL1        0.0265
     65 H          -6.3914   -3.0978   -1.9531 H       1  UNL1        0.0265
     66 H          -9.0744   -6.8636   -8.0101 H       1  UNL1        0.0265
     67 H          -8.6322   -8.4116   -8.7255 H       1  UNL1        0.0265
     68 H          -7.2119   -5.5916   -0.4507 H       1  UNL1        0.0265
     69 H          -7.1746   -3.9803    0.1983 H       1  UNL1        0.0265
     70 H         -11.0203   -9.1613   -8.4129 H       1  UNL1        0.0265
     71 H         -11.3983   -7.5890   -7.6964 H       1  UNL1        0.0265
     72 H          -4.5315   -5.3520   -0.6343 H       1  UNL1        0.0270
     73 H          -5.4505   -5.8938    0.7390 H       1  UNL1        0.0270
     74 H         -10.6794   -6.4366   -9.7943 H       1  UNL1        0.0263
     75 H         -10.2629   -7.9900  -10.5178 H       1  UNL1        0.0263
     76 H          -4.1560   -4.6887    1.9368 H       1  UNL1        0.0377
     77 H          -5.2858   -3.3709    1.6004 H       1  UNL1        0.0377
     78 H          -2.2509   -7.7037    0.7797 H       1  UNL1        0.0265
     79 H          -1.2702   -6.2566    0.6031 H       1  UNL1        0.0265
     80 H           0.7016   -7.7167   -0.0533 H       1  UNL1        0.0265
     81 H          -0.3096   -9.1312    0.2034 H       1  UNL1        0.0265
     82 H          -0.9317   -8.5101    2.6410 H       1  UNL1        0.0265
     83 H          -1.5294   -6.8959    2.9572 H       1  UNL1        0.0265
     84 H          -3.5033   -4.9523   -8.7341 H       1  UNL1        0.0265
     85 H          -3.9021   -4.9241   -7.0366 H       1  UNL1        0.0265
     86 H          -1.1565   -4.3231   -8.2574 H       1  UNL1        0.0265
     87 H          -1.6179   -5.8092   -7.5009 H       1  UNL1        0.0265
     88 H          -0.2017   -8.7681   -2.0985 H       1  UNL1        0.0268
     89 H          -1.8484   -8.4164   -1.5987 H       1  UNL1        0.0268
     90 H          -4.6812   -2.8753   -8.1336 H       1  UNL1        0.0265
     91 H          -3.4878   -2.4963   -6.9103 H       1  UNL1        0.0265
     92 H          -1.4300   -3.0684   -6.1108 H       1  UNL1        0.0268
     93 H          -0.2082   -4.3158   -6.0639 H       1  UNL1        0.0268
     94 H           1.3195   -7.7269    2.2561 H       1  UNL1        0.0270
     95 H           0.7309   -7.1453    3.7972 H       1  UNL1        0.0270
     96 H          -1.4143   -5.9546   -1.8583 H       1  UNL1        0.0307
     97 H           0.2801   -6.3037   -2.2621 H       1  UNL1        0.0307
     98 H          -3.0875   -1.1221   -8.8577 H       1  UNL1        0.0265
     99 H          -1.7327   -2.2140   -8.6687 H       1  UNL1        0.0265
    100 H          -3.0160   -4.5887   -4.8551 H       1  UNL1        0.0307
    101 H          -1.5462   -4.1997   -3.9622 H       1  UNL1        0.0307
    102 H         -13.0606   -7.1619   -9.5890 H       1  UNL1        0.0230
    103 H         -12.4948   -7.2386  -11.2692 H       1  UNL1        0.0230
    104 H         -12.6413   -8.7273  -10.3147 H       1  UNL1        0.0230
    105 H           0.9944   -5.5146    1.2223 H       1  UNL1        0.0377
    106 H           2.0525   -5.4439    2.6350 H       1  UNL1        0.0377
    107 H          -0.9644   -7.9972   -4.0438 H       1  UNL1        0.0569
    108 H          -2.7510   -3.7240  -10.4514 H       1  UNL1        0.0263
    109 H          -4.0631   -2.5585  -10.6340 H       1  UNL1        0.0263
    110 H          -1.8602   -6.7567   -5.6393 H       1  UNL1        0.0569
    111 H          -0.6496   -2.2221    3.6406 H       1  UNL1        0.0792
    112 H          -1.9196   -0.8415    1.9570 H       1  UNL1        0.0736
    113 H          -1.1758   -1.7803    0.6346 H       1  UNL1        0.0736
    114 H           1.2017   -0.9707    1.5201 H       1  UNL1        0.0604
    115 H           1.7200   -1.5259    3.1000 H       1  UNL1        0.0604
    116 H          -1.0867   -1.9947  -11.1066 H       1  UNL1        0.0230
    117 H          -2.3129   -2.2448  -12.3598 H       1  UNL1        0.0230
    118 H          -2.3969   -0.8153  -11.3154 H       1  UNL1        0.0230
    119 H           2.1804    4.0630    5.0090 H       1  UNL1        0.0578
    120 H           3.4282    2.9828    4.3984 H       1  UNL1        0.0578
    121 H           0.7677    1.9440    1.2972 H       1  UNL1        0.2220
    122 H           3.5518    5.2741    3.3668 H       1  UNL1        0.0444
    123 H           3.3014    4.0095    2.1581 H       1  UNL1        0.0444
    124 H           1.7426    5.4344    1.5331 H       1  UNL1        0.1183
    125 H           0.8296    4.6223    2.6255 H       1  UNL1        0.1183
@<TRIPOS>BOND
     1     1     5    1
     2     1     7    1
     3     1     8    1
     4     1     9    2
     5     2    38    1
     6     2    44    1
     7     3    45    1
     8     4    38    2
     9     5    46    1
    10     6    45    2
    11     7    48    1
    12     8   121    1
    13    10    49    1
    14    10   124    1
    15    10   125    1
    16    11    12    1
    17    11    13    1
    18    11    50    1
    19    11    51    1
    20    12    14    1
    21    12    52    1
    22    12    53    1
    23    13    16    1
    24    13    54    1
    25    13    55    1
    26    14    15    1
    27    14    56    1
    28    14    57    1
    29    15    17    1
    30    15    60    1
    31    15    61    1
    32    16    18    1
    33    16    58    1
    34    16    59    1
    35    17    19    1
    36    17    62    1
    37    17    63    1
    38    18    20    1
    39    18    64    1
    40    18    65    1
    41    19    21    1
    42    19    66    1
    43    19    67    1
    44    20    22    1
    45    20    68    1
    46    20    69    1
    47    21    23    1
    48    21    70    1
    49    21    71    1
    50    22    24    1
    51    22    72    1
    52    22    73    1
    53    23    37    1
    54    23    74    1
    55    23    75    1
    56    24    38    1
    57    24    76    1
    58    24    77    1
    59    25    26    1
    60    25    27    1
    61    25    78    1
    62    25    79    1
    63    26    30    1
    64    26    80    1
    65    26    81    1
    66    27    33    1
    67    27    82    1
    68    27    83    1
    69    28    29    1
    70    28    31    1
    71    28    84    1
    72    28    85    1
    73    29    32    1
    74    29    86    1
    75    29    87    1
    76    30    34    1
    77    30    88    1
    78    30    89    1
    79    31    35    1
    80    31    90    1
    81    31    91    1
    82    32    36    1
    83    32    92    1
    84    32    93    1
    85    33    39    1
    86    33    94    1
    87    33    95    1
    88    34    40    1
    89    34    96    1
    90    34    97    1
    91    35    41    1
    92    35    98    1
    93    35    99    1
    94    36    42    1
    95    36   100    1
    96    36   101    1
    97    37   102    1
    98    37   103    1
    99    37   104    1
   100    39    45    1
   101    39   105    1
   102    39   106    1
   103    40    42    2
   104    40   107    1
   105    41    47    1
   106    41   108    1
   107    41   109    1
   108    42   110    1
   109    43    46    1
   110    43   111    1
   111    44   112    1
   112    44   113    1
   113    46   114    1
   114    46   115    1
   115    47   116    1
   116    47   117    1
   117    47   118    1
   118    48    49    1
   119    48   119    1
   120    48   120    1
   121    49   122    1
   122    49   123    1
   123    43    44    1
   124    43     3    1
