@<TRIPOS>MOLECULE
popg
 128 127 0 0 0
SMALL
GASTEIGER

@<TRIPOS>ATOM
      1 P           2.1079   -1.9492    2.2443 P.3     1  UNL1        0.4751
      2 O          -2.4002   -3.3147   -1.7464 O.3     1  UNL1       -0.4608
      3 O           0.4042   -3.3311   -2.2840 O.3     1  UNL1       -0.4555
      4 O          -3.2334   -1.3356   -2.5107 O.2     1  UNL1       -0.2509
      5 O           0.8029   -2.5357    1.3531 O.3     1  UNL1       -0.2828
      6 O           1.5946   -5.2483   -1.9063 O.2     1  UNL1       -0.2508
      7 O           1.4557   -2.0851    3.7740 O.3     1  UNL1       -0.2840
      8 O           1.2523   -0.4494    2.1367 O.3     1  UNL1       -0.3025
      9 O           2.8737   -3.2915    2.3406 O.2     1  UNL1       -0.2273
     10 O           1.8468   -4.4607    5.6530 O.3     1  UNL1       -0.3872
     11 O           3.5828   -3.7198    7.5068 O.3     1  UNL1       -0.3924
     12 C          -1.1329   -7.5382   -3.5379 C.3     1  UNL1       -0.0531
     13 C          -0.5459   -8.4374   -4.6293 C.3     1  UNL1       -0.0531
     14 C          -1.5289   -6.1310   -4.0061 C.3     1  UNL1       -0.0531
     15 C           0.7095   -7.8256   -5.2418 C.3     1  UNL1       -0.0531
     16 C          -2.6542   -6.0802   -5.0396 C.3     1  UNL1       -0.0531
     17 C           1.2908   -8.6779   -6.3594 C.3     1  UNL1       -0.0531
     18 C           2.5277   -7.9865   -6.9288 C.3     1  UNL1       -0.0531
     19 C          -3.9964   -6.5845   -4.5223 C.3     1  UNL1       -0.0530
     20 C           3.1248   -8.7894   -8.0756 C.3     1  UNL1       -0.0531
     21 C          -4.4549   -6.0415   -3.1584 C.3     1  UNL1       -0.0526
     22 C           4.3692   -8.0991   -8.6257 C.3     1  UNL1       -0.0533
     23 C          -4.9649   -4.5974   -2.9867 C.3     1  UNL1       -0.0430
     24 C           4.9828   -8.9121   -9.7608 C.3     1  UNL1       -0.0559
     25 C          -4.1911   -3.3475   -3.4258 C.3     1  UNL1        0.0449
     26 C           5.6212   -3.4231   -3.4988 C.3     1  UNL1       -0.0530
     27 C           5.6898   -2.0058   -2.9157 C.3     1  UNL1       -0.0528
     28 C           4.2651   -4.1311   -3.3755 C.3     1  UNL1       -0.0526
     29 C           6.9201    0.1692    2.7849 C.3     1  UNL1       -0.0530
     30 C           8.0851    0.7031    1.9507 C.3     1  UNL1       -0.0528
     31 C           5.5323   -1.8850   -1.3886 C.3     1  UNL1       -0.0496
     32 C           7.3180   -0.0507    4.2413 C.3     1  UNL1       -0.0531
     33 C           9.3291   -0.1950    1.9324 C.3     1  UNL1       -0.0496
     34 C           3.1188   -3.3755   -4.0602 C.3     1  UNL1       -0.0430
     35 C           6.6108   -2.5813   -0.5243 C.3     1  UNL1       -0.0348
     36 C           6.2183   -8.2283  -10.3187 C.3     1  UNL1       -0.0653
     37 C           6.1640   -0.5889    5.0675 C.3     1  UNL1       -0.0533
     38 C           9.1037   -1.6197    1.4127 C.3     1  UNL1       -0.0348
     39 C          -3.2534   -2.5647   -2.4960 C.2     1  UNL1        0.3072
     40 C           1.7837   -4.1159   -4.0351 C.3     1  UNL1        0.0450
     41 C           8.0026   -2.1419   -0.8611 C.2     1  UNL1       -0.0879
     42 C           6.6272   -0.8116    6.5062 C.3     1  UNL1       -0.0559
     43 C           9.0006   -1.7105   -0.0786 C.2     1  UNL1       -0.0879
     44 C          -0.0758   -3.3400   -0.9065 C.3     1  UNL1        0.1605
     45 C          -1.4142   -2.5728   -0.9334 C.3     1  UNL1        0.1315
     46 C           1.2564   -4.3277   -2.6377 C.2     1  UNL1        0.3075
     47 C           1.0650   -2.7292   -0.0379 C.3     1  UNL1        0.0993
     48 C           5.4919   -1.3743    7.3219 C.3     1  UNL1       -0.0653
     49 C           2.3664   -2.1757    4.8998 C.3     1  UNL1        0.0871
     50 C           1.7523   -3.0697    6.0067 C.3     1  UNL1        0.1020
     51 C           2.4052   -2.9237    7.3937 C.3     1  UNL1        0.0723
     52 H          -0.3897   -7.4333   -2.7374 H       1  UNL1        0.0265
     53 H          -1.9930   -8.0449   -3.0859 H       1  UNL1        0.0265
     54 H          -0.2947   -9.4105   -4.1877 H       1  UNL1        0.0265
     55 H          -1.2933   -8.6339   -5.4059 H       1  UNL1        0.0265
     56 H          -0.6623   -5.6133   -4.4231 H       1  UNL1        0.0265
     57 H          -1.8079   -5.5400   -3.1295 H       1  UNL1        0.0265
     58 H           0.4817   -6.8418   -5.6628 H       1  UNL1        0.0265
     59 H           1.4616   -7.6787   -4.4568 H       1  UNL1        0.0265
     60 H          -2.3701   -6.6623   -5.9276 H       1  UNL1        0.0265
     61 H          -2.7645   -5.0544   -5.3992 H       1  UNL1        0.0265
     62 H           1.5525   -9.6727   -5.9824 H       1  UNL1        0.0265
     63 H           0.5430   -8.8106   -7.1508 H       1  UNL1        0.0265
     64 H           2.2610   -6.9823   -7.2828 H       1  UNL1        0.0265
     65 H           3.2745   -7.8573   -6.1354 H       1  UNL1        0.0265
     66 H          -3.9106   -7.6766   -4.4221 H       1  UNL1        0.0265
     67 H          -4.7686   -6.4323   -5.2860 H       1  UNL1        0.0265
     68 H           3.3816   -9.7959   -7.7249 H       1  UNL1        0.0265
     69 H           2.3801   -8.9017   -8.8729 H       1  UNL1        0.0265
     70 H          -3.7082   -6.2605   -2.3916 H       1  UNL1        0.0265
     71 H          -5.3131   -6.6781   -2.8904 H       1  UNL1        0.0265
     72 H           4.1072   -7.0963   -8.9852 H       1  UNL1        0.0265
     73 H           5.1053   -7.9712   -7.8223 H       1  UNL1        0.0265
     74 H          -5.2287   -4.4814   -1.9292 H       1  UNL1        0.0270
     75 H          -5.9203   -4.5682   -3.5326 H       1  UNL1        0.0270
     76 H           5.2536   -9.9101   -9.3972 H       1  UNL1        0.0263
     77 H           4.2481   -9.0465  -10.5632 H       1  UNL1        0.0263
     78 H          -4.9985   -2.6108   -3.5838 H       1  UNL1        0.0377
     79 H          -3.7269   -3.4591   -4.4059 H       1  UNL1        0.0377
     80 H           6.3927   -4.0511   -3.0377 H       1  UNL1        0.0265
     81 H           5.8817   -3.3637   -4.5641 H       1  UNL1        0.0265
     82 H           6.6440   -1.5591   -3.2173 H       1  UNL1        0.0265
     83 H           4.9319   -1.3772   -3.3960 H       1  UNL1        0.0265
     84 H           4.0399   -4.2939   -2.3168 H       1  UNL1        0.0265
     85 H           4.3575   -5.1245   -3.8333 H       1  UNL1        0.0265
     86 H           6.0926    0.8873    2.7393 H       1  UNL1        0.0265
     87 H           6.5386   -0.7634    2.3540 H       1  UNL1        0.0265
     88 H           8.3764    1.6817    2.3544 H       1  UNL1        0.0265
     89 H           7.7416    0.8807    0.9262 H       1  UNL1        0.0265
     90 H           5.5311   -0.8140   -1.1419 H       1  UNL1        0.0268
     91 H           4.5378   -2.2564   -1.0994 H       1  UNL1        0.0268
     92 H           8.1423   -0.7685    4.3070 H       1  UNL1        0.0265
     93 H           7.6711    0.8931    4.6734 H       1  UNL1        0.0265
     94 H           9.7408   -0.2567    2.9486 H       1  UNL1        0.0268
     95 H          10.1079    0.3040    1.3415 H       1  UNL1        0.0268
     96 H           3.3898   -3.1993   -5.1088 H       1  UNL1        0.0270
     97 H           2.9852   -2.3957   -3.5915 H       1  UNL1        0.0270
     98 H           6.3757   -2.3791    0.5256 H       1  UNL1        0.0307
     99 H           6.5207   -3.6643   -0.6545 H       1  UNL1        0.0307
    100 H           6.9691   -8.0781   -9.5363 H       1  UNL1        0.0230
    101 H           6.6641   -8.8381  -11.1089 H       1  UNL1        0.0230
    102 H           5.9638   -7.2508  -10.7424 H       1  UNL1        0.0230
    103 H           5.3176    0.1077    5.0451 H       1  UNL1        0.0265
    104 H           5.8138   -1.5363    4.6368 H       1  UNL1        0.0265
    105 H           8.2670   -2.1098    1.9170 H       1  UNL1        0.0307
    106 H           9.9917   -2.2039    1.6897 H       1  UNL1        0.0307
    107 H           1.8621   -5.0906   -4.5255 H       1  UNL1        0.0377
    108 H           1.0390   -3.5471   -4.6063 H       1  UNL1        0.0377
    109 H           8.2389   -2.2011   -1.9404 H       1  UNL1        0.0569
    110 H           7.4614   -1.5236    6.5210 H       1  UNL1        0.0263
    111 H           6.9785    0.1232    6.9515 H       1  UNL1        0.0263
    112 H           9.9228   -1.4464   -0.5954 H       1  UNL1        0.0569
    113 H          -0.2941   -4.3676   -0.5918 H       1  UNL1        0.0792
    114 H          -1.8288   -2.4713    0.0761 H       1  UNL1        0.0736
    115 H          -1.2460   -1.5729   -1.3545 H       1  UNL1        0.0736
    116 H           1.3816   -1.7728   -0.4699 H       1  UNL1        0.0604
    117 H           1.9331   -3.3937   -0.1131 H       1  UNL1        0.0604
    118 H           5.1331   -2.2668    6.8132 H       1  UNL1        0.0230
    119 H           5.8159   -1.6520    8.3277 H       1  UNL1        0.0230
    120 H           4.6692   -0.6578    7.4027 H       1  UNL1        0.0230
    121 H           3.3299   -2.5858    4.5807 H       1  UNL1        0.0592
    122 H           2.5219   -1.1577    5.2674 H       1  UNL1        0.0592
    123 H           0.6890   -2.8309    6.1005 H       1  UNL1        0.0639
    124 H           0.3089   -0.7044    2.1562 H       1  UNL1        0.2220
    125 H           2.6417   -1.8827    7.6315 H       1  UNL1        0.0583
    126 H           1.7278   -3.2918    8.1710 H       1  UNL1        0.0583
    127 H           1.7890   -4.5184    4.6821 H       1  UNL1        0.2100
    128 H           3.3624   -4.5725    7.0822 H       1  UNL1        0.2095
@<TRIPOS>BOND
     1     1     5    1
     2     1     7    1
     3     1     8    1
     4     1     9    2
     5     2    39    1
     6     2    45    1
     7     3    46    1
     8     4    39    2
     9     5    47    1
    10     6    46    2
    11     7    49    1
    12     8   124    1
    13    10    50    1
    14    10   127    1
    15    11    51    1
    16    11   128    1
    17    12    13    1
    18    12    14    1
    19    12    52    1
    20    12    53    1
    21    13    15    1
    22    13    54    1
    23    13    55    1
    24    14    16    1
    25    14    56    1
    26    14    57    1
    27    15    17    1
    28    15    58    1
    29    15    59    1
    30    16    19    1
    31    16    60    1
    32    16    61    1
    33    17    18    1
    34    17    62    1
    35    17    63    1
    36    18    20    1
    37    18    64    1
    38    18    65    1
    39    19    21    1
    40    19    66    1
    41    19    67    1
    42    20    22    1
    43    20    68    1
    44    20    69    1
    45    21    23    1
    46    21    70    1
    47    21    71    1
    48    22    24    1
    49    22    72    1
    50    22    73    1
    51    23    25    1
    52    23    74    1
    53    23    75    1
    54    24    36    1
    55    24    76    1
    56    24    77    1
    57    25    39    1
    58    25    78    1
    59    25    79    1
    60    26    27    1
    61    26    28    1
    62    26    80    1
    63    26    81    1
    64    27    31    1
    65    27    82    1
    66    27    83    1
    67    28    34    1
    68    28    84    1
    69    28    85    1
    70    29    30    1
    71    29    32    1
    72    29    86    1
    73    29    87    1
    74    30    33    1
    75    30    88    1
    76    30    89    1
    77    31    35    1
    78    31    90    1
    79    31    91    1
    80    32    37    1
    81    32    92    1
    82    32    93    1
    83    33    38    1
    84    33    94    1
    85    33    95    1
    86    34    40    1
    87    34    96    1
    88    34    97    1
    89    35    41    1
    90    35    98    1
    91    35    99    1
    92    36   100    1
    93    36   101    1
    94    36   102    1
    95    37    42    1
    96    37   103    1
    97    37   104    1
    98    38    43    1
    99    38   105    1
   100    38   106    1
   101    40    46    1
   102    40   107    1
   103    40   108    1
   104    41    43    2
   105    41   109    1
   106    42    48    1
   107    42   110    1
   108    42   111    1
   109    43   112    1
   110    44    47    1
   111    44   113    1
   112    45   114    1
   113    45   115    1
   114    47   116    1
   115    47   117    1
   116    48   118    1
   117    48   119    1
   118    48   120    1
   119    49    50    1
   120    49   121    1
   121    49   122    1
   122    50    51    1
   123    50   123    1
   124    51   125    1
   125    51   126    1
   126    44    45    1
   127    44     3    1
