@<TRIPOS>MOLECULE
popi
 137 137 0 0 0
SMALL
GASTEIGER

@<TRIPOS>ATOM
      1 P           3.4424   -3.5308   -0.9853 P.3     1  UNL1        0.2131
      2 O           3.9783   -5.0058   -0.4402 O.3     1  UNL1       -0.3188
      3 O           6.6457   -5.6163   -1.6006 O.3     1  UNL1       -0.3865
      4 O           3.5380   -8.5219   -1.7645 O.3     1  UNL1       -0.3865
      5 O           6.4451   -6.1219   -4.4555 O.3     1  UNL1       -0.3865
      6 O           1.9807   -7.7028   -4.0107 O.3     1  UNL1       -0.3865
      7 O           3.8090   -6.3882   -5.5638 O.3     1  UNL1       -0.3865
      8 O           3.2928   -2.4354    0.3791 O.3     1  UNL1       -0.3236
      9 O           2.0785   -3.8320   -1.5616 O.co2   1  UNL1       -0.4373
     10 O           4.5584   -3.0577   -1.8820 O.2     1  UNL1       -0.5172
     11 O           1.7154    1.4264    1.1101 O.3     1  UNL1       -0.4555
     12 O           4.5341    1.7301    2.1579 O.3     1  UNL1       -0.4608
     13 O           3.3421    2.7513    0.1603 O.2     1  UNL1       -0.2508
     14 O           5.5844    0.0581    1.0234 O.2     1  UNL1       -0.2509
     15 C           4.2743   -6.2408   -1.2183 C.3     1  UNL1        0.1224
     16 C           5.5346   -6.3109   -2.1505 C.3     1  UNL1        0.1125
     17 C           3.1396   -7.1054   -1.8871 C.3     1  UNL1        0.1125
     18 C           5.2740   -5.9322   -3.6255 C.3     1  UNL1        0.1118
     19 C           2.8932   -6.7691   -3.3827 C.3     1  UNL1        0.1118
     20 C           4.1653   -6.8013   -4.2275 C.3     1  UNL1        0.1118
     21 C           2.8685   -0.9560    0.1865 C.3     1  UNL1        0.0951
     22 C           2.5615    0.1873    1.4663 C.3     1  UNL1        0.1604
     23 C           7.5321    3.8705    7.4232 C.3     1  UNL1       -0.0531
     24 C           8.2299    4.3646    8.6830 C.3     1  UNL1       -0.0531
     25 C           8.5128    3.1305    6.5157 C.3     1  UNL1       -0.0531
     26 C           7.2500    5.0908    9.5983 C.3     1  UNL1       -0.0531
     27 C           3.5555    0.7697    2.5484 C.3     1  UNL1        0.1315
     28 C           7.7932    2.6572    5.2613 C.3     1  UNL1       -0.0531
     29 C           7.9517    5.5780   10.8626 C.3     1  UNL1       -0.0531
     30 C           8.7283    1.9442    4.2856 C.3     1  UNL1       -0.0530
     31 C           6.9729    6.3011   11.7833 C.3     1  UNL1       -0.0531
     32 C           7.9893    1.4818    3.0242 C.3     1  UNL1       -0.0526
     33 C           7.6697    6.7960   13.0492 C.3     1  UNL1       -0.0531
     34 C           7.3688    2.6486    2.2415 C.3     1  UNL1       -0.0430
     35 C           6.6851    7.5202   13.9657 C.3     1  UNL1       -0.0533
     36 C           6.5924    2.2229    0.9982 C.3     1  UNL1        0.0449
     37 C           2.3175    2.6389    0.8146 C.2     1  UNL1        0.3075
     38 C           1.5406    3.8993    1.2823 C.3     1  UNL1        0.0450
     39 C           2.0814    4.7585    2.4737 C.3     1  UNL1       -0.0430
     40 C           3.5651    5.2433    2.7475 C.3     1  UNL1       -0.0526
     41 C           5.5298    1.2209    1.3194 C.2     1  UNL1        0.3072
     42 C           4.4519    6.4193    2.1840 C.3     1  UNL1       -0.0530
     43 C           7.3675    8.0131   15.2398 C.3     1  UNL1       -0.0559
     44 C           4.7475    6.5817    0.6884 C.3     1  UNL1       -0.0528
     45 C           3.5388    6.6172   -0.2386 C.3     1  UNL1       -0.0496
     46 C          -1.7787    9.5478    0.3281 C.3     1  UNL1       -0.0528
     47 C          -3.0438    8.7204    0.4519 C.3     1  UNL1       -0.0530
     48 C           2.6234    7.8362   -0.0601 C.3     1  UNL1       -0.0348
     49 C          -0.7055    8.9675    1.1995 C.3     1  UNL1       -0.0496
     50 C          -4.1183    9.3464   -0.4173 C.3     1  UNL1       -0.0531
     51 C           6.3835    8.7353   16.1458 C.3     1  UNL1       -0.0653
     52 C           0.5622    9.8096    1.0991 C.3     1  UNL1       -0.0348
     53 C          -5.4032    8.5411   -0.3406 C.3     1  UNL1       -0.0533
     54 C           2.1890    8.0380    1.3547 C.2     1  UNL1       -0.0879
     55 C           1.5033    9.0339    1.9160 C.2     1  UNL1       -0.0879
     56 C          -6.4961    9.1869   -1.1825 C.3     1  UNL1       -0.0559
     57 C          -7.7863    8.3952   -1.0810 C.3     1  UNL1       -0.0653
     58 H           4.6003   -6.8863   -0.3849 H       1  UNL1        0.0654
     59 H           5.8685   -7.3657   -2.1859 H       1  UNL1        0.0647
     60 H           2.2018   -7.0393   -1.3332 H       1  UNL1        0.0647
     61 H           5.0283   -4.8749   -3.7182 H       1  UNL1        0.0647
     62 H           2.4299   -5.7838   -3.4612 H       1  UNL1        0.0647
     63 H           4.5201   -7.8335   -4.3683 H       1  UNL1        0.0647
     64 H           6.3038   -4.7155   -1.4082 H       1  UNL1        0.2100
     65 H           3.7193   -8.8695   -2.6588 H       1  UNL1        0.2100
     66 H           6.8636   -6.9610   -4.2038 H       1  UNL1        0.2100
     67 H           1.9265   -7.4053   -4.9500 H       1  UNL1        0.2100
     68 H           4.0495   -5.4469   -5.6500 H       1  UNL1        0.2100
     69 H           3.5619   -0.4953   -0.5200 H       1  UNL1        0.0602
     70 H           1.8931   -1.0286   -0.3107 H       1  UNL1        0.0602
     71 H           1.8557   -0.3752    2.0957 H       1  UNL1        0.0792
     72 H           7.0973    4.7223    6.8843 H       1  UNL1        0.0265
     73 H           6.7022    3.2052    7.6924 H       1  UNL1        0.0265
     74 H           8.6730    3.5140    9.2142 H       1  UNL1        0.0265
     75 H           9.0493    5.0397    8.4078 H       1  UNL1        0.0265
     76 H           8.9474    2.2762    7.0468 H       1  UNL1        0.0265
     77 H           9.3358    3.8007    6.2394 H       1  UNL1        0.0265
     78 H           6.8093    5.9432    9.0667 H       1  UNL1        0.0265
     79 H           6.4270    4.4172    9.8672 H       1  UNL1        0.0265
     80 H           2.9303    1.3849    3.2339 H       1  UNL1        0.0736
     81 H           4.0063    0.0253    3.2022 H       1  UNL1        0.0736
     82 H           7.3498    3.5375    4.7864 H       1  UNL1        0.0265
     83 H           6.9698    1.9862    5.5348 H       1  UNL1        0.0265
     84 H           8.3947    4.7244   11.3900 H       1  UNL1        0.0265
     85 H           8.7728    6.2526   10.5911 H       1  UNL1        0.0265
     86 H           9.1705    1.0704    4.7800 H       1  UNL1        0.0265
     87 H           9.5577    2.6048    4.0062 H       1  UNL1        0.0265
     88 H           6.5270    7.1502   11.2511 H       1  UNL1        0.0265
     89 H           6.1542    5.6229   12.0536 H       1  UNL1        0.0265
     90 H           7.2161    0.7614    3.3235 H       1  UNL1        0.0265
     91 H           8.6924    0.9371    2.3814 H       1  UNL1        0.0265
     92 H           8.1141    5.9458   13.5809 H       1  UNL1        0.0265
     93 H           8.4891    7.4727   12.7780 H       1  UNL1        0.0265
     94 H           8.1681    3.3419    1.9375 H       1  UNL1        0.0270
     95 H           6.6819    3.2128    2.8784 H       1  UNL1        0.0270
     96 H           6.2448    8.3709   13.4312 H       1  UNL1        0.0265
     97 H           5.8629    6.8432   14.2279 H       1  UNL1        0.0265
     98 H           7.2644    1.7428    0.2754 H       1  UNL1        0.0377
     99 H           6.1394    3.0890    0.5028 H       1  UNL1        0.0377
    100 H           1.3683    4.5437    0.4102 H       1  UNL1        0.0377
    101 H           0.5176    3.5891    1.5486 H       1  UNL1        0.0377
    102 H           1.3779    5.5938    2.6210 H       1  UNL1        0.0270
    103 H           1.8673    4.1251    3.3482 H       1  UNL1        0.0270
    104 H           3.4835    5.5663    3.8020 H       1  UNL1        0.0265
    105 H           4.1988    4.3581    2.7698 H       1  UNL1        0.0265
    106 H           4.1477    7.3936    2.5977 H       1  UNL1        0.0265
    107 H           5.4319    6.3317    2.6771 H       1  UNL1        0.0265
    108 H           7.8019    7.1651   15.7818 H       1  UNL1        0.0263
    109 H           8.1898    8.6918   14.9852 H       1  UNL1        0.0263
    110 H           5.3129    7.5164    0.5389 H       1  UNL1        0.0265
    111 H           5.4250    5.7795    0.3777 H       1  UNL1        0.0265
    112 H           3.8900    6.6060   -1.2790 H       1  UNL1        0.0268
    113 H           2.9776    5.6962   -0.1078 H       1  UNL1        0.0268
    114 H          -1.9640   10.5854    0.6260 H       1  UNL1        0.0265
    115 H          -1.4332    9.5513   -0.7124 H       1  UNL1        0.0265
    116 H          -2.8511    7.6860    0.1386 H       1  UNL1        0.0265
    117 H          -3.3696    8.6820    1.4993 H       1  UNL1        0.0265
    118 H          -0.5161    7.9276    0.8833 H       1  UNL1        0.0268
    119 H          -1.0420    8.9066    2.2461 H       1  UNL1        0.0268
    120 H           3.1790    8.7293   -0.3735 H       1  UNL1        0.0307
    121 H           1.7573    7.7283   -0.7213 H       1  UNL1        0.0307
    122 H          -4.2954   10.3775   -0.0874 H       1  UNL1        0.0265
    123 H          -3.7656    9.3935   -1.4548 H       1  UNL1        0.0265
    124 H           5.5576    8.0759   16.4313 H       1  UNL1        0.0230
    125 H           6.8836    9.0700   17.0597 H       1  UNL1        0.0230
    126 H           5.9639    9.6140   15.6457 H       1  UNL1        0.0230
    127 H           0.4296   10.8116    1.5157 H       1  UNL1        0.0307
    128 H           0.8917    9.9119    0.0597 H       1  UNL1        0.0307
    129 H          -5.2152    7.5205   -0.6953 H       1  UNL1        0.0265
    130 H          -5.7290    8.4674    0.7040 H       1  UNL1        0.0265
    131 H           2.3526    7.2474    2.0515 H       1  UNL1        0.0569
    132 H           1.3283    9.0121    2.9903 H       1  UNL1        0.0569
    133 H          -6.6703   10.2159   -0.8465 H       1  UNL1        0.0263
    134 H          -6.1779    9.2368   -2.2304 H       1  UNL1        0.0263
    135 H          -8.1349    8.3508   -0.0441 H       1  UNL1        0.0230
    136 H          -8.5672    8.8636   -1.6861 H       1  UNL1        0.0230
    137 H          -7.6419    7.3705   -1.4382 H       1  UNL1        0.0230
@<TRIPOS>UNITY_ATOM_ATTR
9 1
charge -1
@<TRIPOS>BOND
     1     1     2    1
     2     1     8    1
     3     1     9    1
     4     1    10    2
     5     2    15    1
     6    16     3    1
     7     3    64    1
     8    17     4    1
     9     4    65    1
    10     5    66    1
    11     6    67    1
    12     7    20    1
    13     7    68    1
    14     8    21    1
    15    11    37    1
    16    12    27    1
    17    12    41    1
    18    13    37    2
    19    14    41    2
    20    15    16    1
    21    15    17    1
    22    15    58    1
    23    16    18    1
    24    16    59    1
    25    17    19    1
    26    17    60    1
    27    18    20    1
    28    19    20    1
    29    20    63    1
    30    21    69    1
    31    21    70    1
    32    22    27    1
    33    22    71    1
    34    23    24    1
    35    23    25    1
    36    23    72    1
    37    23    73    1
    38    24    26    1
    39    24    74    1
    40    24    75    1
    41    25    28    1
    42    25    76    1
    43    25    77    1
    44    26    29    1
    45    26    78    1
    46    26    79    1
    47    27    80    1
    48    27    81    1
    49    28    30    1
    50    28    82    1
    51    28    83    1
    52    29    31    1
    53    29    84    1
    54    29    85    1
    55    30    32    1
    56    30    86    1
    57    30    87    1
    58    31    33    1
    59    31    88    1
    60    31    89    1
    61    32    34    1
    62    32    90    1
    63    32    91    1
    64    33    35    1
    65    33    92    1
    66    33    93    1
    67    34    36    1
    68    34    94    1
    69    34    95    1
    70    35    43    1
    71    35    96    1
    72    35    97    1
    73    36    41    1
    74    36    98    1
    75    36    99    1
    76    37    38    1
    77    38    39    1
    78    38   100    1
    79    38   101    1
    80    39    40    1
    81    39   102    1
    82    39   103    1
    83    40    42    1
    84    40   104    1
    85    40   105    1
    86    42    44    1
    87    42   106    1
    88    42   107    1
    89    43    51    1
    90    43   108    1
    91    43   109    1
    92    44    45    1
    93    44   110    1
    94    44   111    1
    95    45    48    1
    96    45   112    1
    97    45   113    1
    98    46    47    1
    99    46    49    1
   100    46   114    1
   101    46   115    1
   102    47    50    1
   103    47   116    1
   104    47   117    1
   105    48    54    1
   106    48   120    1
   107    48   121    1
   108    49    52    1
   109    49   118    1
   110    49   119    1
   111    50    53    1
   112    50   122    1
   113    50   123    1
   114    51   124    1
   115    51   125    1
   116    51   126    1
   117    52    55    1
   118    52   127    1
   119    52   128    1
   120    53    56    1
   121    53   129    1
   122    53   130    1
   123    54    55    2
   124    54   131    1
   125    55   132    1
   126    56    57    1
   127    56   133    1
   128    56   134    1
   129    57   135    1
   130    57   136    1
   131    57   137    1
   132    18    61    1
   133    18     5    1
   134    19    62    1
   135    19     6    1
   136    22    21    1
   137    22    11    1
