@<TRIPOS>MOLECULE
pops
 128 127 0 0 0
SMALL
GASTEIGER

@<TRIPOS>ATOM
      1 P1          3.6612   -1.7268    3.1726 P.3     1  <1>         0.4751
      2 O1          2.9471    4.3856    3.9802 O.3     1  <1>        -0.4608
      3 O2          0.7448    2.4771    4.1273 O.3     1  <1>        -0.4555
      4 O3          3.2938    3.9552    6.1863 O.2     1  <1>        -0.2509
      5 O4          3.4407   -0.1322    3.7162 O.3     1  <1>        -0.2828
      6 O5          0.1470    2.1724    6.3261 O.2     1  <1>        -0.2508
      7 O6          5.2848   -1.5538    2.9164 O.3     1  <1>        -0.2845
      8 O7          3.4659   -1.0262    1.6029 O.3     1  <1>        -0.3025
      9 O8          3.8360   -2.3538    4.5774 O.2     1  <1>        -0.2273
     10 O9          5.3879   -1.4569    7.4364 O.3     1  <1>        -0.4795
     11 O10         6.6468   -2.6716    6.0311 O.2     1  <1>        -0.2492
     12 N1          6.8033    0.5386    5.8061 N.3     1  <1>        -0.3166
     13 C1          1.2818    9.2736    0.5607 C.3     1  <1>        -0.0531
     14 C2          0.4152   10.5325    0.6270 C.3     1  <1>        -0.0531
     15 C3          2.4626    9.3401    1.5352 C.3     1  <1>        -0.0531
     16 C4          1.1956   11.7758    0.2109 C.3     1  <1>        -0.0531
     17 C5          3.2972    8.0672    1.5107 C.3     1  <1>        -0.0531
     18 C6          0.3505   13.0307    0.3293 C.3     1  <1>        -0.0531
     19 C7          1.1813   14.2469   -0.0568 C.3     1  <1>        -0.0531
     20 C8          4.4854    8.1158    2.4754 C.3     1  <1>        -0.0530
     21 C9          0.3505   15.5138    0.0582 C.3     1  <1>        -0.0531
     22 C10         4.1885    8.2765    3.9756 C.3     1  <1>        -0.0526
     23 C11         1.1778   16.7305   -0.3352 C.3     1  <1>        -0.0533
     24 C12         3.0363    7.4834    4.6463 C.3     1  <1>        -0.0430
     25 C13         0.3479   18.0043   -0.2396 C.3     1  <1>        -0.0559
     26 C14         3.3602    6.2704    5.5446 C.3     1  <1>         0.0449
     27 C15        -1.9824    5.3440    7.2261 C.3     1  <1>        -0.0530
     28 C16        -1.9905    5.9752    8.6325 C.3     1  <1>        -0.0528
     29 C17        -2.4104    3.8851    7.1520 C.3     1  <1>        -0.0526
     30 C18         4.6168    7.1130    8.9984 C.3     1  <1>        -0.0530
     31 C19         4.9587    6.0206   10.0125 C.3     1  <1>        -0.0528
     32 C20        -1.0426    5.3899    9.6855 C.3     1  <1>        -0.0496
     33 C21         5.1551    8.4808    9.4136 C.3     1  <1>        -0.0531
     34 C22         4.4109    6.2633   11.4232 C.3     1  <1>        -0.0496
     35 C23        -2.5259    3.3673    5.7027 C.3     1  <1>        -0.0430
     36 C24         0.4603    5.4100    9.3450 C.3     1  <1>        -0.0348
     37 C25         1.1757   19.2127   -0.6365 C.3     1  <1>        -0.0653
     38 C26         4.7925    9.5685    8.4082 C.3     1  <1>        -0.0533
     39 C27         2.8775    6.3645   11.5314 C.3     1  <1>        -0.0348
     40 C28         3.1805    4.7620    5.2571 C.2     1  <1>         0.3072
     41 C29        -1.2765    3.4565    4.8112 C.3     1  <1>         0.0450
     42 C30         1.2348    4.6762   10.4131 C.2     1  <1>        -0.0879
     43 C31         5.3144   10.9231    8.8859 C.3     1  <1>        -0.0559
     44 C32         2.1938    5.0500   11.2779 C.2     1  <1>        -0.0879
     45 C33         2.0897    1.9402    4.3273 C.3     1  <1>         0.1605
     46 C34         3.0671    2.9492    3.6443 C.3     1  <1>         0.1315
     47 C35        -0.0782    2.6138    5.2116 C.2     1  <1>         0.3075
     48 C36         2.1454    0.4762    3.7314 C.3     1  <1>         0.0993
     49 C37         4.9616   12.0256    7.9048 C.3     1  <1>        -0.0653
     50 C38         6.1830   -0.8476    3.7951 C.3     1  <1>         0.0846
     51 C39         5.8651   -0.4952    5.2775 C.3     1  <1>         0.1273
     52 C40         5.9703   -1.6865    6.2460 C.2     1  <1>         0.3240
     53 H1          1.6400    9.1295   -0.4647 H       1  <1>         0.0265
     54 H2          0.6541    8.4059    0.8049 H       1  <1>         0.0265
     55 H3         -0.4532   10.4092   -0.0322 H       1  <1>         0.0265
     56 H4          0.0260   10.6581    1.6446 H       1  <1>         0.0265
     57 H5          2.0842    9.5363    2.5422 H       1  <1>         0.0265
     58 H6          3.1204   10.1753    1.2667 H       1  <1>         0.0265
     59 H7          2.0758   11.9091    0.8470 H       1  <1>         0.0265
     60 H8          1.5549   11.6586   -0.8185 H       1  <1>         0.0265
     61 H9          3.6888    7.9342    0.4947 H       1  <1>         0.0265
     62 H10         2.6741    7.1898    1.7242 H       1  <1>         0.0265
     63 H11        -0.5330   12.9546   -0.3154 H       1  <1>         0.0265
     64 H12        -0.0053   13.1415    1.3622 H       1  <1>         0.0265
     65 H13         2.0621   14.3192    0.5957 H       1  <1>         0.0265
     66 H14         1.5530   14.1323   -1.0830 H       1  <1>         0.0265
     67 H15         5.1103    8.9735    2.1757 H       1  <1>         0.0265
     68 H16         5.1096    7.2316    2.3158 H       1  <1>         0.0265
     69 H17        -0.5303   15.4354   -0.5906 H       1  <1>         0.0265
     70 H18        -0.0117   15.6260    1.0874 H       1  <1>         0.0265
     71 H19         3.9500    9.3447    4.1072 H       1  <1>         0.0265
     72 H20         5.1250    8.1396    4.5305 H       1  <1>         0.0265
     73 H21         2.0552   16.8068    0.3188 H       1  <1>         0.0265
     74 H22         1.5490   16.6055   -1.3599 H       1  <1>         0.0265
     75 H23         2.1813    7.3193    3.9891 H       1  <1>         0.0270
     76 H24         2.6749    8.2259    5.3829 H       1  <1>         0.0270
     77 H25        -0.5269   17.9286   -0.8958 H       1  <1>         0.0263
     78 H26        -0.0231   18.1341    0.7838 H       1  <1>         0.0263
     79 H27         2.6806    6.3989    6.4029 H       1  <1>         0.0377
     80 H28         4.3750    6.3841    5.9362 H       1  <1>         0.0377
     81 H29        -0.9711    5.4661    6.8046 H       1  <1>         0.0265
     82 H30        -2.6465    5.9382    6.6019 H       1  <1>         0.0265
     83 H31        -1.7729    7.0463    8.5247 H       1  <1>         0.0265
     84 H32        -3.0167    5.9141    9.0275 H       1  <1>         0.0265
     85 H33        -3.3965    3.7835    7.6160 H       1  <1>         0.0265
     86 H34        -1.7342    3.2434    7.7255 H       1  <1>         0.0265
     87 H35         5.0613    6.8361    8.0365 H       1  <1>         0.0265
     88 H36         3.5332    7.1589    8.8436 H       1  <1>         0.0265
     89 H37         6.0519    5.9371   10.0762 H       1  <1>         0.0265
     90 H38         4.6020    5.0551    9.6357 H       1  <1>         0.0265
     91 H39        -1.1879    5.9619   10.6114 H       1  <1>         0.0268
     92 H40        -1.3606    4.3636    9.9112 H       1  <1>         0.0268
     93 H41         4.7487    8.7677   10.3885 H       1  <1>         0.0265
     94 H42         6.2454    8.4240    9.5193 H       1  <1>         0.0265
     95 H43         4.8572    7.1760   11.8367 H       1  <1>         0.0268
     96 H44         4.7731    5.4542   12.0714 H       1  <1>         0.0268
     97 H45        -3.3167    3.9473    5.2083 H       1  <1>         0.0270
     98 H46        -2.8812    2.3302    5.7261 H       1  <1>         0.0270
     99 H47         0.6239    4.8737    8.4025 H       1  <1>         0.0307
    100 H48         0.8165    6.4348    9.2012 H       1  <1>         0.0307
    101 H49         1.5679   19.0989   -1.6523 H       1  <1>         0.0230
    102 H50         0.5648   20.1189   -0.6037 H       1  <1>         0.0230
    103 H51         2.0222   19.3431    0.0452 H       1  <1>         0.0230
    104 H52         5.2145    9.3273    7.4256 H       1  <1>         0.0265
    105 H53         3.7025    9.6141    8.2934 H       1  <1>         0.0265
    106 H54         2.4829    7.1739   10.9113 H       1  <1>         0.0307
    107 H55         2.6558    6.6418   12.5715 H       1  <1>         0.0307
    108 H56        -0.9464    4.4950    4.7185 H       1  <1>         0.0377
    109 H57        -1.5827    3.1203    3.8139 H       1  <1>         0.0377
    110 H58         0.9442    3.6244   10.4750 H       1  <1>         0.0569
    111 H59         4.8856   11.1621    9.8667 H       1  <1>         0.0263
    112 H60         6.4029   10.8821    9.0121 H       1  <1>         0.0263
    113 H61         2.5429    4.2666   11.9537 H       1  <1>         0.0569
    114 H62         2.3317    1.8838    5.3954 H       1  <1>         0.0792
    115 H63         4.1109    2.6521    3.8098 H       1  <1>         0.0736
    116 H64         2.8907    2.9156    2.5643 H       1  <1>         0.0736
    117 H65         1.7502    0.4951    2.7102 H       1  <1>         0.0604
    118 H66         1.4779   -0.1649    4.3172 H       1  <1>         0.0604
    119 H67         3.8787   12.0844    7.7573 H       1  <1>         0.0230
    120 H68         5.3085   12.9927    8.2808 H       1  <1>         0.0230
    121 H69         5.4333   11.8461    6.9338 H       1  <1>         0.0230
    122 H70         7.1360   -1.3892    3.7545 H       1  <1>         0.0587
    123 H71         6.3551    0.1016    3.2767 H       1  <1>         0.0587
    124 H72         4.2677   -1.2741    1.0995 H       1  <1>         0.2220
    125 H73         4.8568   -0.0871    5.3900 H       1  <1>         0.0597
    126 H74         6.9495    1.2641    5.1074 H       1  <1>         0.1190
    127 H75         7.7241    0.1067    5.9338 H       1  <1>         0.1190
    128 H76         4.9933   -0.5588    7.4713 H       1  <1>         0.2951
@<TRIPOS>BOND
     1     1     5    1
     2     1     7    1
     3     1     8    1
     4     1     9    2
     5     2    40    1
     6     2    46    1
     7     3    47    1
     8     4    40    2
     9     5    48    1
    10     6    47    2
    11     7    50    1
    12     8   124    1
    13    10    52    1
    14    10   128    1
    15    11    52    2
    16    12   126    1
    17    12   127    1
    18    13    14    1
    19    13    15    1
    20    13    53    1
    21    13    54    1
    22    14    16    1
    23    14    55    1
    24    14    56    1
    25    15    17    1
    26    15    57    1
    27    15    58    1
    28    16    18    1
    29    16    59    1
    30    16    60    1
    31    17    20    1
    32    17    61    1
    33    17    62    1
    34    18    19    1
    35    18    63    1
    36    18    64    1
    37    19    21    1
    38    19    65    1
    39    19    66    1
    40    20    22    1
    41    20    67    1
    42    20    68    1
    43    21    23    1
    44    21    69    1
    45    21    70    1
    46    22    24    1
    47    22    71    1
    48    22    72    1
    49    23    25    1
    50    23    73    1
    51    23    74    1
    52    24    26    1
    53    24    75    1
    54    24    76    1
    55    25    37    1
    56    25    77    1
    57    25    78    1
    58    26    40    1
    59    26    79    1
    60    26    80    1
    61    27    28    1
    62    27    29    1
    63    27    81    1
    64    27    82    1
    65    28    32    1
    66    28    83    1
    67    28    84    1
    68    29    35    1
    69    29    85    1
    70    29    86    1
    71    30    31    1
    72    30    33    1
    73    30    87    1
    74    30    88    1
    75    31    34    1
    76    31    89    1
    77    31    90    1
    78    32    36    1
    79    32    91    1
    80    32    92    1
    81    33    38    1
    82    33    93    1
    83    33    94    1
    84    34    39    1
    85    34    95    1
    86    34    96    1
    87    35    41    1
    88    35    97    1
    89    35    98    1
    90    36    42    1
    91    36    99    1
    92    36   100    1
    93    37   101    1
    94    37   102    1
    95    37   103    1
    96    38    43    1
    97    38   104    1
    98    38   105    1
    99    39    44    1
   100    39   106    1
   101    39   107    1
   102    41    47    1
   103    41   108    1
   104    41   109    1
   105    42    44    2
   106    42   110    1
   107    43    49    1
   108    43   111    1
   109    43   112    1
   110    44   113    1
   111    45    48    1
   112    45   114    1
   113    46   115    1
   114    46   116    1
   115    48   117    1
   116    48   118    1
   117    49   119    1
   118    49   120    1
   119    49   121    1
   120    50   122    1
   121    50   123    1
   122    51    52    1
   123    51   125    1
   124    45    46    1
   125    45     3    1
   126    51    50    1
   127    51    12    1
