@<TRIPOS>MOLECULE
triolein
 167 166 0 0 0
SMALL
GASTEIGER

@<TRIPOS>ATOM
      1 O           1.1880    0.7944   -0.3740 O.3     1  UNL1       -0.4544
      2 O          -0.1049   -2.6880   -1.5055 O.3     1  UNL1       -0.4608
      3 O          -0.8467    0.4568    1.5591 O.3     1  UNL1       -0.4608
      4 O           1.5807    1.2621   -2.5761 O.2     1  UNL1       -0.2508
      5 O          -1.8908   -1.4991   -2.2438 O.2     1  UNL1       -0.2509
      6 O           1.1654    1.3334    2.2660 O.2     1  UNL1       -0.2509
      7 C          -0.7153    5.6442   -2.9863 C.3     1  UNL1       -0.0530
      8 C          -0.3401    5.7698   -4.4668 C.3     1  UNL1       -0.0528
      9 C          -1.9197   -5.7699    0.1131 C.3     1  UNL1       -0.0530
     10 C          -3.3539    2.7647    5.5840 C.3     1  UNL1       -0.0530
     11 C          -0.1173    4.5070   -2.0837 C.3     1  UNL1       -0.0526
     12 C          -3.0289   -6.7842   -0.1813 C.3     1  UNL1       -0.0528
     13 C          -2.5131    2.1762    6.7180 C.3     1  UNL1       -0.0528
     14 C          -4.7755    0.1865   -5.8547 C.3     1  UNL1       -0.0528
     15 C          -4.3447   -1.2707   -5.7910 C.3     1  UNL1       -0.0530
     16 C          -0.4329    4.4931   -5.3247 C.3     1  UNL1       -0.0496
     17 C         -10.2978   -3.6999    2.2502 C.3     1  UNL1       -0.0530
     18 C          -6.5122   -4.2122    9.9681 C.3     1  UNL1       -0.0530
     19 C          -9.5818   -4.9680    1.7927 C.3     1  UNL1       -0.0528
     20 C          -5.3307   -3.2614   10.1450 C.3     1  UNL1       -0.0528
     21 C          -0.8690   -5.7139   -0.9913 C.3     1  UNL1       -0.0526
     22 C          -2.5055    3.2520    4.4149 C.3     1  UNL1       -0.0526
     23 C          -4.1146   -6.7924    0.8981 C.3     1  UNL1       -0.0496
     24 C          -3.3908    1.6389    7.8474 C.3     1  UNL1       -0.0496
     25 C          -4.0360    0.9967   -4.8132 C.3     1  UNL1       -0.0496
     26 C          -5.1160   -2.0708   -6.8325 C.3     1  UNL1       -0.0531
     27 C         -11.4001   -4.0349    3.2494 C.3     1  UNL1       -0.0531
     28 C          -7.1162   -4.5899   11.3178 C.3     1  UNL1       -0.0531
     29 C          -8.4971   -4.6201    0.7879 C.3     1  UNL1       -0.0496
     30 C          -4.7346   -2.9132    8.7922 C.3     1  UNL1       -0.0496
     31 C           1.3761    4.3078   -1.8571 C.3     1  UNL1       -0.0430
     32 C          -1.4012   -5.2585   -2.3513 C.3     1  UNL1       -0.0430
     33 C          -1.7245    2.1063    3.7800 C.3     1  UNL1       -0.0430
     34 C          -1.8377    3.9020   -5.4885 C.3     1  UNL1       -0.0348
     35 C          -4.8161   -5.4388    1.0466 C.3     1  UNL1       -0.0348
     36 C          -4.3306    0.5190    7.3859 C.3     1  UNL1       -0.0348
     37 C          -4.5190    2.4448   -4.8758 C.3     1  UNL1       -0.0348
     38 C          -4.7201   -3.5406   -6.7934 C.3     1  UNL1       -0.0533
     39 C         -12.1276   -2.7737    3.7114 C.3     1  UNL1       -0.0533
     40 C          -8.2951   -5.5463   11.1441 C.3     1  UNL1       -0.0533
     41 C          -7.7535   -5.8552    0.2985 C.3     1  UNL1       -0.0348
     42 C          -3.5431   -1.9714    8.9245 C.3     1  UNL1       -0.0348
     43 C           1.6303    3.0833   -0.9076 C.3     1  UNL1        0.0450
     44 C          -2.0714   -3.8838   -2.3827 C.3     1  UNL1        0.0449
     45 C          -0.8630    2.5737    2.6244 C.3     1  UNL1        0.0449
     46 C          -2.4641    3.5660   -4.1819 C.2     1  UNL1       -0.0879
     47 C          -3.6751    3.1313   -3.8705 C.2     1  UNL1       -0.0879
     48 C          -5.5001   -4.3462   -7.8284 C.3     1  UNL1       -0.0559
     49 C         -13.2417   -3.1031    4.7038 C.3     1  UNL1       -0.0559
     50 C          -8.8994   -5.9397   12.4911 C.3     1  UNL1       -0.0559
     51 C          -5.4383   -5.0846   -0.2727 C.2     1  UNL1       -0.0879
     52 C          -3.5003   -0.6025    6.8269 C.2     1  UNL1       -0.0879
     53 C          -6.6993   -5.3504   -0.6321 C.2     1  UNL1       -0.0879
     54 C          -3.0817   -1.6589    7.5343 C.2     1  UNL1       -0.0879
     55 C           0.2245   -0.3147   -0.4926 C.3     1  UNL1        0.1706
     56 C           0.7048   -1.4717   -1.4127 C.3     1  UNL1        0.1325
     57 C          -0.1846   -0.6955    0.9562 C.3     1  UNL1        0.1325
     58 C           1.4579    1.6357   -1.4210 C.2     1  UNL1        0.3075
     59 C          -1.3454   -2.5857   -2.0551 C.2     1  UNL1        0.3072
     60 C          -0.0507    1.4043    2.1350 C.2     1  UNL1        0.3072
     61 C          -5.1064   -5.8129   -7.7878 C.3     1  UNL1       -0.0653
     62 C         -13.9624   -1.8447    5.1606 C.3     1  UNL1       -0.0653
     63 C         -10.0713   -6.8920   12.3135 C.3     1  UNL1       -0.0653
     64 H          -1.8100    5.5585   -2.9486 H       1  UNL1        0.0265
     65 H          -0.5640    6.6174   -2.5083 H       1  UNL1        0.0265
     66 H          -0.9931    6.5225   -4.9376 H       1  UNL1        0.0265
     67 H           0.6744    6.1710   -4.5455 H       1  UNL1        0.0265
     68 H          -1.4391   -6.0378    1.0604 H       1  UNL1        0.0265
     69 H          -2.3249   -4.7627    0.2536 H       1  UNL1        0.0265
     70 H          -3.9479    3.5974    5.9783 H       1  UNL1        0.0265
     71 H          -4.0637    2.0280    5.1942 H       1  UNL1        0.0265
     72 H          -0.4322    3.5123   -2.3890 H       1  UNL1        0.0265
     73 H          -0.5899    4.6712   -1.1105 H       1  UNL1        0.0265
     74 H          -3.4953   -6.5788   -1.1489 H       1  UNL1        0.0265
     75 H          -2.5997   -7.7895   -0.2689 H       1  UNL1        0.0265
     76 H          -1.8769    1.3624    6.3553 H       1  UNL1        0.0265
     77 H          -1.8251    2.9329    7.1088 H       1  UNL1        0.0265
     78 H          -5.8506    0.2763   -5.6793 H       1  UNL1        0.0265
     79 H          -4.5593    0.5976   -6.8475 H       1  UNL1        0.0265
     80 H          -3.2657   -1.3534   -5.9730 H       1  UNL1        0.0265
     81 H          -4.5336   -1.6733   -4.7881 H       1  UNL1        0.0265
     82 H          -0.0572    4.7304   -6.3234 H       1  UNL1        0.0268
     83 H           0.2425    3.7349   -4.9109 H       1  UNL1        0.0268
     84 H          -9.5758   -3.0131    2.7089 H       1  UNL1        0.0265
     85 H         -10.7254   -3.1824    1.3829 H       1  UNL1        0.0265
     86 H          -7.2756   -3.7395    9.3382 H       1  UNL1        0.0265
     87 H          -6.1794   -5.1172    9.4439 H       1  UNL1        0.0265
     88 H         -10.2959   -5.6602    1.3292 H       1  UNL1        0.0265
     89 H          -9.1348   -5.4765    2.6516 H       1  UNL1        0.0265
     90 H          -4.5622   -3.7251   10.7723 H       1  UNL1        0.0265
     91 H          -5.6616   -2.3465   10.6497 H       1  UNL1        0.0265
     92 H          -0.4161   -6.7078   -1.0931 H       1  UNL1        0.0265
     93 H          -0.0661   -5.0402   -0.6780 H       1  UNL1        0.0265
     94 H          -1.8243    4.0347    4.7607 H       1  UNL1        0.0265
     95 H          -3.1713    3.6992    3.6687 H       1  UNL1        0.0265
     96 H          -4.8604   -7.5523    0.6244 H       1  UNL1        0.0268
     97 H          -3.6900   -7.1036    1.8580 H       1  UNL1        0.0268
     98 H          -2.7336    1.2576    8.6404 H       1  UNL1        0.0268
     99 H          -3.9730    2.4565    8.2872 H       1  UNL1        0.0268
    100 H          -2.9569    0.9141   -4.9971 H       1  UNL1        0.0268
    101 H          -4.2139    0.5812   -3.8173 H       1  UNL1        0.0268
    102 H          -6.1918   -1.9672   -6.6448 H       1  UNL1        0.0265
    103 H          -4.9202   -1.6561   -7.8292 H       1  UNL1        0.0265
    104 H         -12.1143   -4.7256    2.7854 H       1  UNL1        0.0265
    105 H         -10.9657   -4.5496    4.1149 H       1  UNL1        0.0265
    106 H          -6.3469   -5.0594   11.9426 H       1  UNL1        0.0265
    107 H          -7.4479   -3.6829   11.8375 H       1  UNL1        0.0265
    108 H          -7.7892   -3.9211    1.2565 H       1  UNL1        0.0268
    109 H          -8.9370   -4.0934   -0.0704 H       1  UNL1        0.0268
    110 H          -5.5120   -2.4410    8.1671 H       1  UNL1        0.0268
    111 H          -4.4215   -3.8234    8.2683 H       1  UNL1        0.0268
    112 H           1.7442    5.2058   -1.3464 H       1  UNL1        0.0270
    113 H           1.9265    4.2031   -2.7968 H       1  UNL1        0.0270
    114 H          -2.1514   -5.9960   -2.6892 H       1  UNL1        0.0270
    115 H          -0.6032   -5.3211   -3.0968 H       1  UNL1        0.0270
    116 H          -2.4176    1.3236    3.4460 H       1  UNL1        0.0270
    117 H          -1.0575    1.6376    4.5103 H       1  UNL1        0.0270
    118 H          -2.4718    4.6186   -6.0173 H       1  UNL1        0.0307
    119 H          -1.7380    2.9856   -6.0950 H       1  UNL1        0.0307
    120 H          -5.5534   -5.4936    1.8532 H       1  UNL1        0.0307
    121 H          -4.1201   -4.6519    1.3580 H       1  UNL1        0.0307
    122 H          -4.9523    0.1980    8.2274 H       1  UNL1        0.0307
    123 H          -5.0452    0.8623    6.6323 H       1  UNL1        0.0307
    124 H          -5.5447    2.5588   -4.6299 H       1  UNL1        0.0307
    125 H          -4.3327    2.8774   -5.8844 H       1  UNL1        0.0307
    126 H          -3.6441   -3.6351   -6.9830 H       1  UNL1        0.0265
    127 H          -4.9094   -3.9438   -5.7912 H       1  UNL1        0.0265
    128 H         -11.4107   -2.0866    4.1773 H       1  UNL1        0.0265
    129 H         -12.5523   -2.2570    2.8420 H       1  UNL1        0.0265
    130 H          -9.0629   -5.0725   10.5204 H       1  UNL1        0.0265
    131 H          -7.9606   -6.4473   10.6156 H       1  UNL1        0.0265
    132 H          -8.4147   -6.5478   -0.2307 H       1  UNL1        0.0307
    133 H          -7.3360   -6.4162    1.1409 H       1  UNL1        0.0307
    134 H          -2.7260   -2.4316    9.4911 H       1  UNL1        0.0307
    135 H          -3.8223   -1.0698    9.4821 H       1  UNL1        0.0307
    136 H           0.9388    3.1918   -0.0631 H       1  UNL1        0.0377
    137 H           2.6497    3.1574   -0.5175 H       1  UNL1        0.0377
    138 H          -2.9428   -3.9023   -1.7262 H       1  UNL1        0.0377
    139 H          -2.4620   -3.7588   -3.4024 H       1  UNL1        0.0377
    140 H          -0.1674    3.3499    2.9690 H       1  UNL1        0.0377
    141 H          -1.4495    3.0066    1.8076 H       1  UNL1        0.0377
    142 H          -1.8495    3.5770   -3.3268 H       1  UNL1        0.0569
    143 H          -3.9257    2.9252   -2.8214 H       1  UNL1        0.0569
    144 H          -6.5757   -4.2547   -7.6383 H       1  UNL1        0.0263
    145 H          -5.3128   -3.9471   -8.8321 H       1  UNL1        0.0263
    146 H         -13.9647   -3.7838    4.2395 H       1  UNL1        0.0263
    147 H         -12.8251   -3.6184    5.5770 H       1  UNL1        0.0263
    148 H          -8.1369   -6.4200   13.1151 H       1  UNL1        0.0263
    149 H          -9.2391   -5.0444   13.0248 H       1  UNL1        0.0263
    150 H          -4.7884   -4.6488   -1.0233 H       1  UNL1        0.0569
    151 H          -3.1580   -0.4970    5.7976 H       1  UNL1        0.0569
    152 H          -7.0123   -5.1220   -1.6482 H       1  UNL1        0.0569
    153 H          -2.4098   -2.3759    7.0680 H       1  UNL1        0.0569
    154 H          -0.6673    0.1306   -0.9321 H       1  UNL1        0.0803
    155 H           0.8045   -1.0784   -2.4322 H       1  UNL1        0.0736
    156 H           1.7168   -1.7937   -1.1374 H       1  UNL1        0.0736
    157 H          -0.9268   -1.5022    0.9619 H       1  UNL1        0.0736
    158 H           0.6412   -1.0100    1.6074 H       1  UNL1        0.0736
    159 H          -5.3053   -6.2428   -6.8010 H       1  UNL1        0.0230
    160 H          -5.6777   -6.3795   -8.5286 H       1  UNL1        0.0230
    161 H          -4.0415   -5.9380   -8.0086 H       1  UNL1        0.0230
    162 H         -14.4101   -1.3200    4.3106 H       1  UNL1        0.0230
    163 H         -14.7621   -2.0985    5.8631 H       1  UNL1        0.0230
    164 H         -13.2730   -1.1587    5.6631 H       1  UNL1        0.0230
    165 H          -9.7570   -7.8086   11.8040 H       1  UNL1        0.0230
    166 H         -10.4861   -7.1698   13.2873 H       1  UNL1        0.0230
    167 H         -10.8685   -6.4278   11.7241 H       1  UNL1        0.0230
@<TRIPOS>BOND
     1     1    55    1
     2     1    58    1
     3     2    56    1
     4     2    59    1
     5     3    57    1
     6     3    60    1
     7     4    58    2
     8     5    59    2
     9     6    60    2
    10     7     8    1
    11     7    11    1
    12     7    64    1
    13     7    65    1
    14     8    16    1
    15     8    66    1
    16     8    67    1
    17     9    12    1
    18     9    21    1
    19     9    68    1
    20     9    69    1
    21    10    13    1
    22    10    22    1
    23    10    70    1
    24    10    71    1
    25    11    31    1
    26    11    72    1
    27    11    73    1
    28    12    23    1
    29    12    74    1
    30    12    75    1
    31    13    24    1
    32    13    76    1
    33    13    77    1
    34    14    15    1
    35    14    25    1
    36    14    78    1
    37    14    79    1
    38    15    26    1
    39    15    80    1
    40    15    81    1
    41    16    34    1
    42    16    82    1
    43    16    83    1
    44    17    19    1
    45    17    27    1
    46    17    84    1
    47    17    85    1
    48    18    20    1
    49    18    28    1
    50    18    86    1
    51    18    87    1
    52    19    29    1
    53    19    88    1
    54    19    89    1
    55    20    30    1
    56    20    90    1
    57    20    91    1
    58    21    32    1
    59    21    92    1
    60    21    93    1
    61    22    33    1
    62    22    94    1
    63    22    95    1
    64    23    35    1
    65    23    96    1
    66    23    97    1
    67    24    36    1
    68    24    98    1
    69    24    99    1
    70    25    37    1
    71    25   100    1
    72    25   101    1
    73    26    38    1
    74    26   102    1
    75    26   103    1
    76    27    39    1
    77    27   104    1
    78    27   105    1
    79    28    40    1
    80    28   106    1
    81    28   107    1
    82    29    41    1
    83    29   108    1
    84    29   109    1
    85    30    42    1
    86    30   110    1
    87    30   111    1
    88    31    43    1
    89    31   112    1
    90    31   113    1
    91    32    44    1
    92    32   114    1
    93    32   115    1
    94    33    45    1
    95    33   116    1
    96    33   117    1
    97    34    46    1
    98    34   118    1
    99    34   119    1
   100    35    51    1
   101    35   120    1
   102    35   121    1
   103    36    52    1
   104    36   122    1
   105    36   123    1
   106    37    47    1
   107    37   124    1
   108    37   125    1
   109    38    48    1
   110    38   126    1
   111    38   127    1
   112    39    49    1
   113    39   128    1
   114    39   129    1
   115    40    50    1
   116    40   130    1
   117    40   131    1
   118    41    53    1
   119    41   132    1
   120    41   133    1
   121    42    54    1
   122    42   134    1
   123    42   135    1
   124    43    58    1
   125    43   136    1
   126    43   137    1
   127    44    59    1
   128    44   138    1
   129    44   139    1
   130    45    60    1
   131    45   140    1
   132    45   141    1
   133    46    47    2
   134    46   142    1
   135    47   143    1
   136    48    61    1
   137    48   144    1
   138    48   145    1
   139    49    62    1
   140    49   146    1
   141    49   147    1
   142    50    63    1
   143    50   148    1
   144    50   149    1
   145    51    53    2
   146    51   150    1
   147    52    54    2
   148    52   151    1
   149    53   152    1
   150    54   153    1
   151    55    56    1
   152    55    57    1
   153    55   154    1
   154    56   155    1
   155    56   156    1
   156    57   157    1
   157    57   158    1
   158    61   159    1
   159    61   160    1
   160    61   161    1
   161    62   162    1
   162    62   163    1
   163    62   164    1
   164    63   165    1
   165    63   166    1
   166    63   167    1
