@<TRIPOS>MOLECULE
tripalmitin
 155 154 0 0 0
SMALL
GASTEIGER

@<TRIPOS>ATOM
      1 O           1.4714    0.5310    0.4084 O.3     1  UNL1       -0.4544
      2 O           0.7395    2.0154   -2.0206 O.3     1  UNL1       -0.4608
      3 O          -1.0295   -1.9377   -0.9570 O.3     1  UNL1       -0.4608
      4 O           0.4356    2.5340    0.6479 O.2     1  UNL1       -0.2508
      5 O          -1.5097    2.1852   -2.3031 O.2     1  UNL1       -0.2509
      6 O           0.6312   -2.6574   -2.3514 O.2     1  UNL1       -0.2509
      7 C           8.1581    4.1142   -1.6987 C.3     1  UNL1       -0.0531
      8 C           9.5331    3.8870   -1.0762 C.3     1  UNL1       -0.0531
      9 C           3.2648    4.3840   -8.0462 C.3     1  UNL1       -0.0531
     10 C          -4.7658   -8.7547   -6.6197 C.3     1  UNL1       -0.0531
     11 C           2.8202    4.5701   -9.4908 C.3     1  UNL1       -0.0531
     12 C          -4.6840  -10.2517   -6.8943 C.3     1  UNL1       -0.0531
     13 C           7.2718    2.8989   -1.4748 C.3     1  UNL1       -0.0531
     14 C          10.4206    5.1069   -1.2873 C.3     1  UNL1       -0.0531
     15 C           2.1494    4.7864   -7.0900 C.3     1  UNL1       -0.0531
     16 C          -3.6436   -8.3323   -5.6780 C.3     1  UNL1       -0.0531
     17 C           3.9364    4.1601  -10.4445 C.3     1  UNL1       -0.0531
     18 C          -5.8035  -10.6896   -7.8312 C.3     1  UNL1       -0.0531
     19 C           5.8792    3.0965   -2.0583 C.3     1  UNL1       -0.0531
     20 C          11.8012    4.8903   -0.6782 C.3     1  UNL1       -0.0531
     21 C           2.6040    4.6122   -5.6505 C.3     1  UNL1       -0.0531
     22 C          -3.7115   -6.8376   -5.3986 C.3     1  UNL1       -0.0531
     23 C           3.5034    4.3412  -11.8952 C.3     1  UNL1       -0.0531
     24 C          -5.7325  -12.1897   -8.1038 C.3     1  UNL1       -0.0531
     25 C           5.0247    1.8634   -1.8176 C.3     1  UNL1       -0.0530
     26 C          12.6724    6.1220   -0.9002 C.3     1  UNL1       -0.0531
     27 C           1.5054    4.9990   -4.6718 C.3     1  UNL1       -0.0530
     28 C          -2.5888   -6.4099   -4.4594 C.3     1  UNL1       -0.0530
     29 C           4.6211    3.9254  -12.8485 C.3     1  UNL1       -0.0531
     30 C          -6.8503  -12.6203   -9.0515 C.3     1  UNL1       -0.0531
     31 C           4.7521    1.3656   -0.3857 C.3     1  UNL1       -0.0526
     32 C          14.0597    5.9215   -0.2970 C.3     1  UNL1       -0.0531
     33 C           2.0159    4.7447   -3.2567 C.3     1  UNL1       -0.0526
     34 C          -2.6851   -4.9078   -4.1928 C.3     1  UNL1       -0.0526
     35 C           4.1928    4.1055  -14.3046 C.3     1  UNL1       -0.0531
     36 C          -6.7866  -14.1223   -9.3305 C.3     1  UNL1       -0.0531
     37 C           4.2583    2.1358    0.8438 C.3     1  UNL1       -0.0430
     38 C          14.9303    7.1541   -0.5246 C.3     1  UNL1       -0.0533
     39 C           1.0008    5.0844   -2.1819 C.3     1  UNL1       -0.0430
     40 C          -1.6174   -4.4353   -3.2613 C.3     1  UNL1       -0.0430
     41 C           5.3095    3.6929  -15.2627 C.3     1  UNL1       -0.0533
     42 C          -7.9099  -14.5557  -10.2728 C.3     1  UNL1       -0.0533
     43 C           2.7996    2.6001    0.8431 C.3     1  UNL1        0.0450
     44 C          16.3211    6.9768    0.0794 C.3     1  UNL1       -0.0559
     45 C          -0.3008    4.2724   -2.2657 C.3     1  UNL1        0.0449
     46 C          -1.6600   -2.9380   -2.9932 C.3     1  UNL1        0.0449
     47 C           4.8908    3.8621  -16.7229 C.3     1  UNL1       -0.0559
     48 C          -7.8511  -16.0538  -10.5703 C.3     1  UNL1       -0.0559
     49 C           0.3202    0.0968   -0.4041 C.3     1  UNL1        0.1706
     50 C           1.4720    1.8638    0.6611 C.2     1  UNL1        0.3075
     51 C          17.1703    8.2162   -0.1507 C.3     1  UNL1       -0.0653
     52 C          -0.4120    2.7309   -2.1928 C.2     1  UNL1        0.3072
     53 C          -0.5478   -2.5229   -2.0986 C.2     1  UNL1        0.3072
     54 C           6.0122    3.4517  -17.6648 C.3     1  UNL1       -0.0653
     55 C          -8.9722  -16.4705  -11.5095 C.3     1  UNL1       -0.0653
     56 C           0.6522    0.5279   -1.8760 C.3     1  UNL1        0.1325
     57 C          -0.0294   -1.4031   -0.0846 C.3     1  UNL1        0.1325
     58 H           8.2594    4.3077   -2.7734 H       1  UNL1        0.0265
     59 H           7.6922    5.0008   -1.2527 H       1  UNL1        0.0265
     60 H           9.4263    3.6825   -0.0033 H       1  UNL1        0.0265
     61 H          10.0055    3.0026   -1.5220 H       1  UNL1        0.0265
     62 H           4.1596    4.9874   -7.8480 H       1  UNL1        0.0265
     63 H           3.5439    3.3360   -7.8784 H       1  UNL1        0.0265
     64 H          -5.7365   -8.5055   -6.1729 H       1  UNL1        0.0265
     65 H          -4.6988   -8.1989   -7.5634 H       1  UNL1        0.0265
     66 H           1.9211    3.9708   -9.6800 H       1  UNL1        0.0265
     67 H           2.5478    5.6183   -9.6655 H       1  UNL1        0.0265
     68 H          -3.7081  -10.4907   -7.3348 H       1  UNL1        0.0265
     69 H          -4.7526  -10.8061   -5.9502 H       1  UNL1        0.0265
     70 H           7.1837    2.7042   -0.4021 H       1  UNL1        0.0265
     71 H           7.7419    2.0141   -1.9242 H       1  UNL1        0.0265
     72 H          10.5097    5.3158   -2.3604 H       1  UNL1        0.0265
     73 H           9.9569    5.9887   -0.8288 H       1  UNL1        0.0265
     74 H           1.2611    4.1696   -7.2723 H       1  UNL1        0.0265
     75 H           1.8607    5.8285   -7.2716 H       1  UNL1        0.0265
     76 H          -2.6704   -8.5803   -6.1191 H       1  UNL1        0.0265
     77 H          -3.7212   -8.8943   -4.7393 H       1  UNL1        0.0265
     78 H           4.8304    4.7624  -10.2412 H       1  UNL1        0.0265
     79 H           4.2117    3.1127  -10.2690 H       1  UNL1        0.0265
     80 H          -6.7730  -10.4379   -7.3840 H       1  UNL1        0.0265
     81 H          -5.7348  -10.1374   -8.7765 H       1  UNL1        0.0265
     82 H           5.9584    3.2559   -3.1473 H       1  UNL1        0.0265
     83 H           5.3940    3.9847   -1.6455 H       1  UNL1        0.0265
     84 H          11.7004    4.6890    0.3954 H       1  UNL1        0.0265
     85 H          12.2823    4.0112   -1.1246 H       1  UNL1        0.0265
     86 H           3.4961    5.2193   -5.4545 H       1  UNL1        0.0265
     87 H           2.8867    3.5655   -5.4808 H       1  UNL1        0.0265
     88 H          -4.6819   -6.5815   -4.9571 H       1  UNL1        0.0265
     89 H          -3.6354   -6.2850   -6.3435 H       1  UNL1        0.0265
     90 H           2.6047    3.7423  -12.0871 H       1  UNL1        0.0265
     91 H           3.2344    5.3894  -12.0745 H       1  UNL1        0.0265
     92 H          -4.7557  -12.4407   -8.5357 H       1  UNL1        0.0265
     93 H          -5.8161  -12.7429   -7.1603 H       1  UNL1        0.0265
     94 H           5.5556    1.0268   -2.3046 H       1  UNL1        0.0265
     95 H           4.0927    1.9551   -2.3823 H       1  UNL1        0.0265
     96 H          12.7551    6.3228   -1.9757 H       1  UNL1        0.0265
     97 H          12.1953    7.0007   -0.4484 H       1  UNL1        0.0265
     98 H           0.6141    4.3942   -4.8697 H       1  UNL1        0.0265
     99 H           1.2195    6.0503   -4.8085 H       1  UNL1        0.0265
    100 H          -1.6182   -6.6475   -4.9078 H       1  UNL1        0.0265
    101 H          -2.6537   -6.9708   -3.5190 H       1  UNL1        0.0265
    102 H           5.5173    4.5242  -12.6437 H       1  UNL1        0.0265
    103 H           4.8902    2.8771  -12.6687 H       1  UNL1        0.0265
    104 H          -7.8208  -12.3627   -8.6096 H       1  UNL1        0.0265
    105 H          -6.7720  -12.0651   -9.9944 H       1  UNL1        0.0265
    106 H           5.6665    0.8469   -0.0675 H       1  UNL1        0.0265
    107 H           3.9802    0.6163   -0.5418 H       1  UNL1        0.0265
    108 H          13.9646    5.7209    0.7770 H       1  UNL1        0.0265
    109 H          14.5371    5.0428   -0.7472 H       1  UNL1        0.0265
    110 H           2.9366    5.3232   -3.0953 H       1  UNL1        0.0265
    111 H           2.2860    3.6926   -3.1558 H       1  UNL1        0.0265
    112 H          -3.6616   -4.6749   -3.7479 H       1  UNL1        0.0265
    113 H          -2.6395   -4.3739   -5.1508 H       1  UNL1        0.0265
    114 H           3.2953    3.5048  -14.4968 H       1  UNL1        0.0265
    115 H           3.9221    5.1531  -14.4834 H       1  UNL1        0.0265
    116 H          -5.8131  -14.3704   -9.7699 H       1  UNL1        0.0265
    117 H          -6.8643  -14.6765   -8.3875 H       1  UNL1        0.0265
    118 H           4.8948    3.0145    1.0562 H       1  UNL1        0.0270
    119 H           4.4239    1.4779    1.7109 H       1  UNL1        0.0270
    120 H          15.0174    7.3462   -1.6010 H       1  UNL1        0.0265
    121 H          14.4474    8.0333   -0.0805 H       1  UNL1        0.0265
    122 H           0.7514    6.1559   -2.2753 H       1  UNL1        0.0270
    123 H           1.4704    4.9868   -1.1981 H       1  UNL1        0.0270
    124 H          -0.5934   -4.6661   -3.7137 H       1  UNL1        0.0270
    125 H          -1.6293   -4.9785   -2.3168 H       1  UNL1        0.0270
    126 H           6.2035    4.2962  -15.0633 H       1  UNL1        0.0265
    127 H           5.5817    2.6458  -15.0814 H       1  UNL1        0.0265
    128 H          -8.8787  -14.3087   -9.8229 H       1  UNL1        0.0265
    129 H          -7.8394  -13.9948  -11.2130 H       1  UNL1        0.0265
    130 H           2.7667    3.3412    0.0404 H       1  UNL1        0.0377
    131 H           2.6565    3.1204    1.8018 H       1  UNL1        0.0377
    132 H          16.2377    6.7887    1.1562 H       1  UNL1        0.0263
    133 H          16.8178    6.1057   -0.3638 H       1  UNL1        0.0263
    134 H          -0.8004    4.5654   -3.1984 H       1  UNL1        0.0377
    135 H          -0.9322    4.6508   -1.4555 H       1  UNL1        0.0377
    136 H          -2.6116   -2.7153   -2.5323 H       1  UNL1        0.0377
    137 H          -1.6071   -2.3467   -3.9214 H       1  UNL1        0.0377
    138 H           4.0057    3.2489  -16.9281 H       1  UNL1        0.0263
    139 H           4.6147    4.9048  -16.9194 H       1  UNL1        0.0263
    140 H          -6.8871  -16.3040  -11.0284 H       1  UNL1        0.0263
    141 H          -7.9255  -16.6271   -9.6388 H       1  UNL1        0.0263
    142 H          -0.6022    0.6275   -0.1406 H       1  UNL1        0.0803
    143 H          16.6978    9.0975    0.2945 H       1  UNL1        0.0230
    144 H          18.1584    8.0925    0.3020 H       1  UNL1        0.0230
    145 H          17.3066    8.4053   -1.2206 H       1  UNL1        0.0230
    146 H           6.2961    2.4076  -17.4994 H       1  UNL1        0.0230
    147 H           5.6941    3.5571  -18.7066 H       1  UNL1        0.0230
    148 H           6.8998    4.0754  -17.5162 H       1  UNL1        0.0230
    149 H          -8.9111  -15.9228  -12.4547 H       1  UNL1        0.0230
    150 H          -8.9088  -17.5400  -11.7305 H       1  UNL1        0.0230
    151 H          -9.9537  -16.2737  -11.0632 H       1  UNL1        0.0230
    152 H           1.6538    0.1674   -2.1440 H       1  UNL1        0.0736
    153 H          -0.0522    0.1389   -2.6158 H       1  UNL1        0.0736
    154 H           0.8467   -2.0642    0.0171 H       1  UNL1        0.0736
    155 H          -0.4928   -1.4539    0.9150 H       1  UNL1        0.0736
@<TRIPOS>BOND
     1     1    49    1
     2     1    50    1
     3     2    52    1
     4     2    56    1
     5     3    53    1
     6     3    57    1
     7     4    50    2
     8     5    52    2
     9     6    53    2
    10     7     8    1
    11     7    13    1
    12     7    58    1
    13     7    59    1
    14     8    14    1
    15     8    60    1
    16     8    61    1
    17     9    11    1
    18     9    15    1
    19     9    62    1
    20     9    63    1
    21    10    12    1
    22    10    16    1
    23    10    64    1
    24    10    65    1
    25    11    17    1
    26    11    66    1
    27    11    67    1
    28    12    18    1
    29    12    68    1
    30    12    69    1
    31    13    19    1
    32    13    70    1
    33    13    71    1
    34    14    20    1
    35    14    72    1
    36    14    73    1
    37    15    21    1
    38    15    74    1
    39    15    75    1
    40    16    22    1
    41    16    76    1
    42    16    77    1
    43    17    23    1
    44    17    78    1
    45    17    79    1
    46    18    24    1
    47    18    80    1
    48    18    81    1
    49    19    25    1
    50    19    82    1
    51    19    83    1
    52    20    26    1
    53    20    84    1
    54    20    85    1
    55    21    27    1
    56    21    86    1
    57    21    87    1
    58    22    28    1
    59    22    88    1
    60    22    89    1
    61    23    29    1
    62    23    90    1
    63    23    91    1
    64    24    30    1
    65    24    92    1
    66    24    93    1
    67    25    31    1
    68    25    94    1
    69    25    95    1
    70    26    32    1
    71    26    96    1
    72    26    97    1
    73    27    33    1
    74    27    98    1
    75    27    99    1
    76    28    34    1
    77    28   100    1
    78    28   101    1
    79    29    35    1
    80    29   102    1
    81    29   103    1
    82    30    36    1
    83    30   104    1
    84    30   105    1
    85    31    37    1
    86    31   106    1
    87    31   107    1
    88    32    38    1
    89    32   108    1
    90    32   109    1
    91    33    39    1
    92    33   110    1
    93    33   111    1
    94    34    40    1
    95    34   112    1
    96    34   113    1
    97    35    41    1
    98    35   114    1
    99    35   115    1
   100    36    42    1
   101    36   116    1
   102    36   117    1
   103    37    43    1
   104    37   118    1
   105    37   119    1
   106    38    44    1
   107    38   120    1
   108    38   121    1
   109    39    45    1
   110    39   122    1
   111    39   123    1
   112    40    46    1
   113    40   124    1
   114    40   125    1
   115    41    47    1
   116    41   126    1
   117    41   127    1
   118    42    48    1
   119    42   128    1
   120    42   129    1
   121    43    50    1
   122    43   130    1
   123    43   131    1
   124    44    51    1
   125    44   132    1
   126    44   133    1
   127    45    52    1
   128    45   134    1
   129    45   135    1
   130    46    53    1
   131    46   136    1
   132    46   137    1
   133    47    54    1
   134    47   138    1
   135    47   139    1
   136    48    55    1
   137    48   140    1
   138    48   141    1
   139    49    56    1
   140    49    57    1
   141    49   142    1
   142    51   143    1
   143    51   144    1
   144    51   145    1
   145    54   146    1
   146    54   147    1
   147    54   148    1
   148    55   149    1
   149    55   150    1
   150    55   151    1
   151    56   152    1
   152    56   153    1
   153    57   154    1
   154    57   155    1
