@<TRIPOS>MOLECULE
67520
 9 9 0 0 0
SMALL
GASTEIGER

@<TRIPOS>ATOM
      1 N           1.3630    0.3074    0.0000 N.ar    1  UNL1       -0.2404
      2 N          -1.3391   -0.2977    0.0000 N.ar    1  UNL1       -0.1547
      3 N          -0.9346    0.9895    0.0000 N.ar    1  UNL1       -0.1378
      4 C           0.9280   -0.9618    0.0000 C.ar    1  UNL1        0.0492
      5 C          -0.4083   -1.2692    0.0000 C.ar    1  UNL1        0.0680
      6 C           0.3910    1.2317    0.0000 C.ar    1  UNL1        0.1382
      7 H           1.6921   -1.7291    0.0000 H       1  UNL1        0.0846
      8 H          -0.7723   -2.2878    0.0000 H       1  UNL1        0.0863
      9 H           0.6978    2.2693    0.0000 H       1  UNL1        0.1066
@<TRIPOS>BOND
     1     1     4   ar
     2     1     6   ar
     3     2     3   ar
     4     2     5   ar
     5     3     6   ar
     6     4     5   ar
     7     4     7    1
     8     5     8    1
     9     6     9    1
