@<TRIPOS>MOLECULE
9262
 9 9 0 0 0
SMALL
GASTEIGER

@<TRIPOS>ATOM
      1 N          -0.3985   -1.3268    0.0000 N.ar    1  UNL1       -0.2241
      2 N           1.3483    0.3184    0.0000 N.ar    1  UNL1       -0.2241
      3 N          -0.9498    1.0085    0.0001 N.ar    1  UNL1       -0.2241
      4 C           0.8884   -0.9432    0.0000 C.ar    1  UNL1        0.1194
      5 C          -1.2611   -0.2977    0.0000 C.ar    1  UNL1        0.1194
      6 C           0.3726    1.2409   -0.0001 C.ar    1  UNL1        0.1194
      7 H           1.6309   -1.7315    0.0001 H       1  UNL1        0.1048
      8 H          -2.3149   -0.5466    0.0000 H       1  UNL1        0.1048
      9 H           0.6841    2.2781    0.0000 H       1  UNL1        0.1048
@<TRIPOS>BOND
     1     1     4   ar
     2     1     5   ar
     3     2     4   ar
     4     2     6   ar
     5     3     5   ar
     6     3     6   ar
     7     4     7    1
     8     5     8    1
     9     6     9    1
