@<TRIPOS>MOLECULE
9215
 23 25 0 0 0
SMALL
GASTEIGER

@<TRIPOS>ATOM
      1 N           0.0000    1.3612    0.0000 N.ar    1  UNL1       -0.2467
      2 C          -1.2147   -0.7157   -0.0001 C.ar    1  UNL1        0.0010
      3 C           1.2147   -0.7158   -0.0001 C.ar    1  UNL1        0.0010
      4 C          -1.1671    0.6886   -0.0001 C.ar    1  UNL1        0.0717
      5 C           1.1671    0.6886    0.0000 C.ar    1  UNL1        0.0717
      6 C           0.0000   -1.4089   -0.0002 C.ar    1  UNL1       -0.0434
      7 C          -2.4500   -1.3867    0.0000 C.ar    1  UNL1       -0.0525
      8 C           2.4500   -1.3867    0.0001 C.ar    1  UNL1       -0.0525
      9 C          -2.3731    1.3844   -0.0001 C.ar    1  UNL1       -0.0357
     10 C           2.3731    1.3845    0.0001 C.ar    1  UNL1       -0.0357
     11 C          -3.6415   -0.6676    0.0001 C.ar    1  UNL1       -0.0611
     12 C           3.6416   -0.6676    0.0001 C.ar    1  UNL1       -0.0611
     13 C          -3.6026    0.7208    0.0001 C.ar    1  UNL1       -0.0597
     14 C           3.6025    0.7209    0.0000 C.ar    1  UNL1       -0.0597
     15 H           0.0000   -2.4982   -0.0002 H       1  UNL1        0.0631
     16 H          -2.4900   -2.4737    0.0001 H       1  UNL1        0.0624
     17 H           2.4901   -2.4737    0.0001 H       1  UNL1        0.0624
     18 H          -2.3692    2.4729   -0.0001 H       1  UNL1        0.0639
     19 H           2.3690    2.4730    0.0001 H       1  UNL1        0.0639
     20 H          -4.5940   -1.1883    0.0002 H       1  UNL1        0.0618
     21 H           4.5941   -1.1882    0.0002 H       1  UNL1        0.0618
     22 H          -4.5265    1.2917    0.0002 H       1  UNL1        0.0618
     23 H           4.5265    1.2918    0.0001 H       1  UNL1        0.0618
@<TRIPOS>BOND
     1     1     4   ar
     2     1     5   ar
     3     2     4   ar
     4     2     6   ar
     5     2     7   ar
     6     3     5   ar
     7     3     6   ar
     8     3     8   ar
     9     4     9   ar
    10     5    10   ar
    11     6    15    1
    12     7    11   ar
    13     7    16    1
    14     8    12   ar
    15     8    17    1
    16     9    13   ar
    17     9    18    1
    18    10    14   ar
    19    10    19    1
    20    11    13   ar
    21    11    20    1
    22    12    14   ar
    23    12    21    1
    24    13    22    1
    25    14    23    1
