@<TRIPOS>MOLECULE
11018899
 15 16 0 0 0
SMALL
GASTEIGER

@<TRIPOS>ATOM
      1 N          -1.2240   -1.3247    0.0003 N.ar    1  UNL1       -0.1293
      2 N          -2.3866    0.6622   -0.0003 N.ar    1  UNL1       -0.1371
      3 N          -2.3581   -0.6440    0.0000 N.ar    1  UNL1       -0.0428
      4 C           0.0084    0.7021    0.0002 C.ar    1  UNL1        0.0220
      5 C          -0.0429   -0.6859    0.0001 C.ar    1  UNL1        0.0965
      6 C           1.2365    1.3887    0.0002 C.ar    1  UNL1       -0.0510
      7 C           1.1632   -1.3840   -0.0001 C.ar    1  UNL1       -0.0339
      8 C           2.4293    0.6727    0.0000 C.ar    1  UNL1       -0.0610
      9 C           2.3922   -0.7174   -0.0003 C.ar    1  UNL1       -0.0597
     10 C          -1.2181    1.3302   -0.0001 C.ar    1  UNL1        0.0608
     11 H           1.2651    2.4754    0.0003 H       1  UNL1        0.0625
     12 H           1.1581   -2.4722   -0.0002 H       1  UNL1        0.0639
     13 H           3.3811    1.1948   -0.0001 H       1  UNL1        0.0618
     14 H           3.3173   -1.2866   -0.0005 H       1  UNL1        0.0618
     15 H          -1.3113    2.4113   -0.0002 H       1  UNL1        0.0855
@<TRIPOS>BOND
     1     1     3   ar
     2     1     5   ar
     3     2     3   ar
     4     2    10   ar
     5     4     5   ar
     6     4     6   ar
     7     4    10   ar
     8     5     7   ar
     9     6     8   ar
    10     6    11    1
    11     7     9   ar
    12     7    12    1
    13     8     9   ar
    14     8    13    1
    15     9    14    1
    16    10    15    1
