@<TRIPOS>MOLECULE
9208
 16 17 0 0 0
SMALL
GASTEIGER

@<TRIPOS>ATOM
      1 N           1.2044    1.3568    0.0000 N.ar    1  UNL1       -0.1493
      2 N           2.3929    0.6784   -0.0001 N.ar    1  UNL1       -0.1571
      3 C           0.0012   -0.7086    0.0001 C.ar    1  UNL1        0.0036
      4 C           0.0338    0.6964    0.0001 C.ar    1  UNL1        0.0933
      5 C          -1.2295   -1.3870    0.0000 C.ar    1  UNL1       -0.0525
      6 C          -1.1752    1.3873    0.0001 C.ar    1  UNL1       -0.0340
      7 C           1.2147   -1.3963    0.0001 C.ar    1  UNL1       -0.0326
      8 C          -2.4263   -0.6755   -0.0001 C.ar    1  UNL1       -0.0611
      9 C          -2.3988    0.7139   -0.0001 C.ar    1  UNL1       -0.0597
     10 C           2.3827   -0.6654   -0.0001 C.ar    1  UNL1        0.0506
     11 H          -1.2628   -2.4742    0.0000 H       1  UNL1        0.0624
     12 H          -1.1771    2.4756    0.0001 H       1  UNL1        0.0639
     13 H           1.2532   -2.4814    0.0001 H       1  UNL1        0.0640
     14 H          -3.3751   -1.2033   -0.0003 H       1  UNL1        0.0618
     15 H          -3.3276    1.2769   -0.0001 H       1  UNL1        0.0618
     16 H           3.3536   -1.1458   -0.0001 H       1  UNL1        0.0848
@<TRIPOS>BOND
     1     1     2   ar
     2     1     4   ar
     3     2    10   ar
     4     3     4   ar
     5     3     5   ar
     6     3     7   ar
     7     4     6   ar
     8     5     8   ar
     9     5    11    1
    10     6     9   ar
    11     6    12    1
    12     7    10   ar
    13     7    13    1
    14     8     9   ar
    15     8    14    1
    16     9    15    1
    17    10    16    1
