@<TRIPOS>MOLECULE
8405
 17 18 0 0 0
SMALL
GASTEIGER

@<TRIPOS>ATOM
      1 N           2.4384   -0.6888   -0.0002 N.ar    1  UNL1       -0.2626
      2 C          -0.0030    0.7135    0.0001 C.ar    1  UNL1       -0.0150
      3 C           0.0063   -0.6966    0.0001 C.ar    1  UNL1        0.0002
      4 C          -1.2346    1.3887   -0.0001 C.ar    1  UNL1       -0.0539
      5 C          -1.2077   -1.4032    0.0002 C.ar    1  UNL1       -0.0526
      6 C           1.2172    1.3992    0.0002 C.ar    1  UNL1       -0.0359
      7 C           1.2493   -1.3327    0.0000 C.ar    1  UNL1        0.0352
      8 C          -2.4351    0.6762   -0.0001 C.ar    1  UNL1       -0.0612
      9 C          -2.4216   -0.7167   -0.0001 C.ar    1  UNL1       -0.0611
     10 C           2.3907    0.6604   -0.0001 C.ar    1  UNL1        0.0281
     11 H          -1.2690    2.4761   -0.0001 H       1  UNL1        0.0624
     12 H          -1.2153   -2.4908    0.0002 H       1  UNL1        0.0624
     13 H           1.2590    2.4841    0.0003 H       1  UNL1        0.0639
     14 H           1.3276   -2.4164    0.0000 H       1  UNL1        0.0836
     15 H          -3.3814    1.2095   -0.0003 H       1  UNL1        0.0618
     16 H          -3.3570   -1.2686   -0.0002 H       1  UNL1        0.0618
     17 H           3.3562    1.1557   -0.0001 H       1  UNL1        0.0830
@<TRIPOS>BOND
     1     1     7   ar
     2     1    10   ar
     3     2     3   ar
     4     2     4   ar
     5     2     6   ar
     6     3     5   ar
     7     3     7   ar
     8     4     8   ar
     9     4    11    1
    10     5     9   ar
    11     5    12    1
    12     6    10   ar
    13     6    13    1
    14     7    14    1
    15     8     9   ar
    16     8    15    1
    17     9    16    1
    18    10    17    1
