@<TRIPOS>MOLECULE
1318
 22 24 0 0 0
SMALL
GASTEIGER

@<TRIPOS>ATOM
      1 N           1.3676    1.5364   -0.0002 N.ar    1  UNL1       -0.2528
      2 N          -1.3675    1.5365    0.0000 N.ar    1  UNL1       -0.2528
      3 C           0.6967    0.3659   -0.0001 C.ar    1  UNL1        0.0968
      4 C          -0.6967    0.3660   -0.0001 C.ar    1  UNL1        0.0968
      5 C           1.3924   -0.8641   -0.0001 C.ar    1  UNL1        0.0025
      6 C          -1.3923   -0.8640   -0.0001 C.ar    1  UNL1        0.0025
      7 C           0.6938   -2.0749    0.0000 C.ar    1  UNL1       -0.0519
      8 C          -0.6938   -2.0748    0.0000 C.ar    1  UNL1       -0.0519
      9 C           2.7938   -0.8435    0.0000 C.ar    1  UNL1       -0.0511
     10 C          -2.7938   -0.8435    0.0000 C.ar    1  UNL1       -0.0511
     11 C           3.4749    0.3635    0.0002 C.ar    1  UNL1       -0.0430
     12 C          -3.4749    0.3635    0.0001 C.ar    1  UNL1       -0.0430
     13 C           2.7202    1.5165    0.0001 C.ar    1  UNL1        0.0284
     14 C          -2.7202    1.5164    0.0001 C.ar    1  UNL1        0.0284
     15 H           1.2224   -3.0253    0.0001 H       1  UNL1        0.0624
     16 H          -1.2226   -3.0252    0.0000 H       1  UNL1        0.0624
     17 H           3.3636   -1.7701    0.0002 H       1  UNL1        0.0625
     18 H          -3.3636   -1.7701    0.0001 H       1  UNL1        0.0625
     19 H           4.5578    0.3980    0.0004 H       1  UNL1        0.0633
     20 H          -4.5578    0.3979    0.0001 H       1  UNL1        0.0633
     21 H           3.1941    2.4925    0.0001 H       1  UNL1        0.0830
     22 H          -3.1943    2.4924    0.0001 H       1  UNL1        0.0830
@<TRIPOS>BOND
     1     1     3   ar
     2     1    13   ar
     3     2     4   ar
     4     2    14   ar
     5     3     4   ar
     6     3     5   ar
     7     4     6   ar
     8     5     7   ar
     9     5     9   ar
    10     6     8   ar
    11     6    10   ar
    12     7     8   ar
    13     7    15    1
    14     8    16    1
    15     9    11   ar
    16     9    17    1
    17    10    12   ar
    18    10    18    1
    19    11    13   ar
    20    11    19    1
    21    12    14   ar
    22    12    20    1
    23    13    21    1
    24    14    22    1
