@<TRIPOS>MOLECULE
4757
 22 24 0 0 0
SMALL
GASTEIGER

@<TRIPOS>ATOM
      1 N           0.0000    1.3770    0.0000 N.ar    1  UNL1       -0.2436
      2 N           0.0000   -1.3770    0.0002 N.ar    1  UNL1       -0.2436
      3 C           1.1587    0.6993   -0.0001 C.ar    1  UNL1        0.0899
      4 C           1.1588   -0.6993    0.0003 C.ar    1  UNL1        0.0899
      5 C          -1.1588    0.6993    0.0003 C.ar    1  UNL1        0.0899
      6 C          -1.1588   -0.6993    0.0000 C.ar    1  UNL1        0.0899
      7 C           2.3750    1.3792   -0.0004 C.ar    1  UNL1       -0.0342
      8 C           2.3751   -1.3792    0.0005 C.ar    1  UNL1       -0.0342
      9 C          -2.3750    1.3793    0.0005 C.ar    1  UNL1       -0.0342
     10 C          -2.3750   -1.3792   -0.0006 C.ar    1  UNL1       -0.0342
     11 C           3.5882    0.6934   -0.0005 C.ar    1  UNL1       -0.0596
     12 C           3.5882   -0.6934    0.0001 C.ar    1  UNL1       -0.0596
     13 C          -3.5882    0.6934    0.0003 C.ar    1  UNL1       -0.0596
     14 C          -3.5882   -0.6935   -0.0006 C.ar    1  UNL1       -0.0596
     15 H           2.3876    2.4673   -0.0008 H       1  UNL1        0.0639
     16 H           2.3877   -2.4674    0.0008 H       1  UNL1        0.0639
     17 H          -2.3877    2.4674    0.0008 H       1  UNL1        0.0639
     18 H          -2.3876   -2.4674   -0.0010 H       1  UNL1        0.0639
     19 H           4.5252    1.2417   -0.0008 H       1  UNL1        0.0618
     20 H           4.5252   -1.2415    0.0002 H       1  UNL1        0.0618
     21 H          -4.5253    1.2416    0.0004 H       1  UNL1        0.0618
     22 H          -4.5251   -1.2417   -0.0009 H       1  UNL1        0.0618
@<TRIPOS>BOND
     1     1     3   ar
     2     1     5   ar
     3     2     4   ar
     4     2     6   ar
     5     3     4   ar
     6     3     7   ar
     7     4     8   ar
     8     5     6   ar
     9     5     9   ar
    10     6    10   ar
    11     7    11   ar
    12     7    15    1
    13     8    12   ar
    14     8    16    1
    15     9    13   ar
    16     9    17    1
    17    10    14   ar
    18    10    18    1
    19    11    12   ar
    20    11    19    1
    21    12    20    1
    22    13    14   ar
    23    13    21    1
    24    14    22    1
