@<TRIPOS>MOLECULE
9189
 23 25 0 0 0
SMALL
GASTEIGER

@<TRIPOS>ATOM
      1 N           0.7247   -2.0166   -0.0001 N.ar    1  UNL1       -0.2544
      2 C          -0.7189    0.3986    0.0002 C.ar    1  UNL1       -0.0073
      3 C           0.7163    0.4009    0.0002 C.ar    1  UNL1        0.0081
      4 C          -1.3928   -0.8405    0.0002 C.ar    1  UNL1        0.0008
      5 C           1.3812   -0.8484    0.0000 C.ar    1  UNL1        0.0716
      6 C          -1.5291    1.5619    0.0000 C.ar    1  UNL1       -0.0534
      7 C           1.5113    1.5744    0.0004 C.ar    1  UNL1       -0.0520
      8 C          -0.6237   -1.9950    0.0002 C.ar    1  UNL1        0.0360
      9 C          -2.7971   -0.9060    0.0001 C.ar    1  UNL1       -0.0526
     10 C           2.7729   -0.8805   -0.0004 C.ar    1  UNL1       -0.0357
     11 C          -2.9256    1.4918   -0.0005 C.ar    1  UNL1       -0.0611
     12 C           2.9042    1.5169    0.0002 C.ar    1  UNL1       -0.0611
     13 C          -3.5597    0.2573   -0.0001 C.ar    1  UNL1       -0.0611
     14 C           3.5365    0.2852   -0.0003 C.ar    1  UNL1       -0.0597
     15 H          -1.0853    2.5543   -0.0002 H       1  UNL1        0.0624
     16 H           1.0567    2.5615    0.0006 H       1  UNL1        0.0624
     17 H          -1.0822   -2.9805    0.0002 H       1  UNL1        0.0836
     18 H          -3.3066   -1.8675    0.0002 H       1  UNL1        0.0624
     19 H           3.2915   -1.8381   -0.0006 H       1  UNL1        0.0639
     20 H          -3.5133    2.4052   -0.0008 H       1  UNL1        0.0618
     21 H           3.4878    2.4324    0.0002 H       1  UNL1        0.0618
     22 H          -4.6439    0.1995   -0.0002 H       1  UNL1        0.0618
     23 H           4.6206    0.2262   -0.0006 H       1  UNL1        0.0618
@<TRIPOS>BOND
     1     1     5   ar
     2     1     8   ar
     3     2     3   ar
     4     2     4   ar
     5     2     6   ar
     6     3     5   ar
     7     3     7   ar
     8     4     8   ar
     9     4     9   ar
    10     5    10   ar
    11     6    11   ar
    12     6    15    1
    13     7    12   ar
    14     7    16    1
    15     8    17    1
    16     9    13   ar
    17     9    18    1
    18    10    14   ar
    19    10    19    1
    20    11    13   ar
    21    11    20    1
    22    12    14   ar
    23    12    21    1
    24    13    22    1
    25    14    23    1
