@<TRIPOS>MOLECULE
9207
 16 17 0 0 0
SMALL
GASTEIGER

@<TRIPOS>ATOM
      1 N           2.4128    0.6795   -0.0002 N.ar    1  UNL1       -0.1571
      2 N           2.4128   -0.6796    0.0002 N.ar    1  UNL1       -0.1571
      3 C           0.0005    0.7014    0.0001 C.ar    1  UNL1        0.0034
      4 C           0.0004   -0.7014    0.0000 C.ar    1  UNL1        0.0034
      5 C          -1.2204    1.3963    0.0000 C.ar    1  UNL1       -0.0525
      6 C          -1.2206   -1.3962   -0.0002 C.ar    1  UNL1       -0.0525
      7 C          -2.4278    0.6968    0.0000 C.ar    1  UNL1       -0.0611
      8 C          -2.4280   -0.6967    0.0001 C.ar    1  UNL1       -0.0611
      9 C           1.2352    1.3410    0.0000 C.ar    1  UNL1        0.0577
     10 C           1.2352   -1.3411    0.0000 C.ar    1  UNL1        0.0577
     11 H          -1.2387    2.4837    0.0000 H       1  UNL1        0.0624
     12 H          -1.2390   -2.4836   -0.0002 H       1  UNL1        0.0624
     13 H          -3.3687    1.2394    0.0001 H       1  UNL1        0.0618
     14 H          -3.3690   -1.2393    0.0001 H       1  UNL1        0.0618
     15 H           1.3209    2.4228   -0.0001 H       1  UNL1        0.0854
     16 H           1.3209   -2.4229    0.0000 H       1  UNL1        0.0854
@<TRIPOS>BOND
     1     1     2   ar
     2     1     9   ar
     3     2    10   ar
     4     3     4   ar
     5     3     5   ar
     6     3     9   ar
     7     4     6   ar
     8     4    10   ar
     9     5     7   ar
    10     5    11    1
    11     6     8   ar
    12     6    12    1
    13     7     8   ar
    14     7    13    1
    15     8    14    1
    16     9    15    1
    17    10    16    1
