@<TRIPOS>MOLECULE
9261
 10 10 0 0 0
SMALL
GASTEIGER

@<TRIPOS>ATOM
      1 N           1.4024   -0.0008    0.0000 N.ar    1  UNL1       -0.2603
      2 N          -1.4023    0.0008    0.0001 N.ar    1  UNL1       -0.2603
      3 C           0.6881   -1.1439    0.0000 C.ar    1  UNL1        0.0456
      4 C          -0.6895   -1.1430   -0.0001 C.ar    1  UNL1        0.0456
      5 C           0.6895    1.1431    0.0000 C.ar    1  UNL1        0.0456
      6 C          -0.6881    1.1438   -0.0001 C.ar    1  UNL1        0.0456
      7 H           1.2601   -2.0635    0.0001 H       1  UNL1        0.0845
      8 H          -1.2626   -2.0619    0.0000 H       1  UNL1        0.0845
      9 H           1.2626    2.0620    0.0000 H       1  UNL1        0.0845
     10 H          -1.2601    2.0634    0.0000 H       1  UNL1        0.0845
@<TRIPOS>BOND
     1     1     3   ar
     2     1     5   ar
     3     2     4   ar
     4     2     6   ar
     5     3     4   ar
     6     3     7    1
     7     4     8    1
     8     5     6   ar
     9     5     9    1
    10     6    10    1
