@<TRIPOS>MOLECULE
9259
 10 10 0 0 0
SMALL
GASTEIGER

@<TRIPOS>ATOM
      1 N          -1.1929   -0.6793   -0.0001 N.ar    1  UNL1       -0.1577
      2 N          -1.1921    0.6807    0.0001 N.ar    1  UNL1       -0.1577
      3 C           1.2058   -0.6926    0.0000 C.ar    1  UNL1       -0.0404
      4 C           1.2066    0.6912    0.0000 C.ar    1  UNL1       -0.0404
      5 C          -0.0146   -1.3379    0.0000 C.ar    1  UNL1        0.0500
      6 C          -0.0128    1.3380    0.0000 C.ar    1  UNL1        0.0500
      7 H           2.1343   -1.2519    0.0001 H       1  UNL1        0.0634
      8 H           2.1359    1.2493   -0.0001 H       1  UNL1        0.0634
      9 H          -0.0822   -2.4195   -0.0001 H       1  UNL1        0.0848
     10 H          -0.0792    2.4196    0.0000 H       1  UNL1        0.0848
@<TRIPOS>BOND
     1     1     2   ar
     2     1     5   ar
     3     2     6   ar
     4     3     4   ar
     5     3     5   ar
     6     3     7    1
     7     4     6   ar
     8     4     8    1
     9     5     9    1
    10     6    10    1
