@<TRIPOS>MOLECULE
1049
 11 11 0 0 0
SMALL
GASTEIGER

@<TRIPOS>ATOM
      1 N          -1.4026   -0.0003    0.0000 N.ar    1  UNL1       -0.2633
      2 C           1.3927    0.0002    0.0000 C.ar    1  UNL1       -0.0589
      3 C           0.6945    1.2027    0.0001 C.ar    1  UNL1       -0.0436
      4 C           0.6950   -1.2025    0.0000 C.ar    1  UNL1       -0.0436
      5 C          -0.6900    1.1487   -0.0001 C.ar    1  UNL1        0.0276
      6 C          -0.6896   -1.1489    0.0000 C.ar    1  UNL1        0.0276
      7 H           2.4786    0.0004   -0.0001 H       1  UNL1        0.0618
      8 H           1.2175    2.1521    0.0001 H       1  UNL1        0.0633
      9 H           1.2184   -2.1517   -0.0001 H       1  UNL1        0.0633
     10 H          -1.2813    2.0585   -0.0001 H       1  UNL1        0.0829
     11 H          -1.2804   -2.0590    0.0000 H       1  UNL1        0.0829
@<TRIPOS>BOND
     1     1     5   ar
     2     1     6   ar
     3     2     3   ar
     4     2     4   ar
     5     2     7    1
     6     3     5   ar
     7     3     8    1
     8     4     6   ar
     9     4     9    1
    10     5    10    1
    11     6    11    1
