@<TRIPOS>MOLECULE
14758064
 15 16 0 0 0
SMALL
GASTEIGER

@<TRIPOS>ATOM
      1 N           1.1724    1.3980    0.0000 N.ar    1  UNL1       -0.2339
      2 N          -2.4109    0.6769    0.0000 N.ar    1  UNL1       -0.2611
      3 N           2.4266   -0.6606    0.0000 N.ar    1  UNL1       -0.2431
      4 C           0.0101   -0.7028    0.0001 C.ar    1  UNL1        0.0214
      5 C           0.0237    0.6969    0.0000 C.ar    1  UNL1        0.0922
      6 C          -1.2015   -1.4058   -0.0001 C.ar    1  UNL1       -0.0330
      7 C           1.2553   -1.3255    0.0002 C.ar    1  UNL1        0.0386
      8 C          -1.2159    1.3157    0.0002 C.ar    1  UNL1        0.0536
      9 C          -2.3726   -0.6711   -0.0001 C.ar    1  UNL1        0.0283
     10 C           2.3127    0.6783   -0.0001 C.ar    1  UNL1        0.1166
     11 H          -1.2316   -2.4904   -0.0001 H       1  UNL1        0.0640
     12 H           1.3481   -2.4076    0.0002 H       1  UNL1        0.0837
     13 H          -1.2918    2.4000    0.0002 H       1  UNL1        0.0851
     14 H          -3.3395   -1.1629   -0.0002 H       1  UNL1        0.0830
     15 H           3.2375    1.2425   -0.0003 H       1  UNL1        0.1047
@<TRIPOS>BOND
     1     1     5   ar
     2     1    10   ar
     3     2     8   ar
     4     2     9   ar
     5     3     7   ar
     6     3    10   ar
     7     4     5   ar
     8     4     6   ar
     9     4     7   ar
    10     5     8   ar
    11     6     9   ar
    12     6    11    1
    13     7    12    1
    14     8    13    1
    15     9    14    1
    16    10    15    1
