@<TRIPOS>MOLECULE
9260
 10 10 0 0 0
SMALL
GASTEIGER

@<TRIPOS>ATOM
      1 N           1.2035   -0.6989    0.0000 N.ar    1  UNL1       -0.2437
      2 N          -1.2063   -0.6943    0.0000 N.ar    1  UNL1       -0.2437
      3 C           0.0028    1.3870    0.0001 C.ar    1  UNL1       -0.0254
      4 C           1.1692    0.6499   -0.0001 C.ar    1  UNL1        0.0307
      5 C          -1.1666    0.6543   -0.0001 C.ar    1  UNL1        0.0307
      6 C          -0.0026   -1.2980    0.0001 C.ar    1  UNL1        0.1159
      7 H           0.0048    2.4686    0.0002 H       1  UNL1        0.0648
      8 H           2.1379    1.1383   -0.0001 H       1  UNL1        0.0830
      9 H          -2.1333    1.1465   -0.0001 H       1  UNL1        0.0830
     10 H          -0.0046   -2.3812    0.0001 H       1  UNL1        0.1047
@<TRIPOS>BOND
     1     1     4   ar
     2     1     6   ar
     3     2     5   ar
     4     2     6   ar
     5     3     4   ar
     6     3     5   ar
     7     3     7    1
     8     4     8    1
     9     5     9    1
    10     6    10    1
