@<TRIPOS>MOLECULE
7047
 17 18 0 0 0
SMALL
GASTEIGER

@<TRIPOS>ATOM
      1 N           1.1893    1.3914    0.0000 N.ar    1  UNL1       -0.2550
      2 C           0.0056   -0.7077    0.0000 C.ar    1  UNL1        0.0004
      3 C           0.0323    0.7027    0.0000 C.ar    1  UNL1        0.0710
      4 C          -1.2205   -1.3943    0.0000 C.ar    1  UNL1       -0.0526
      5 C           1.2293   -1.3907    0.0000 C.ar    1  UNL1       -0.0511
      6 C          -1.1835    1.3807    0.0000 C.ar    1  UNL1       -0.0357
      7 C          -2.4216   -0.6908    0.0000 C.ar    1  UNL1       -0.0611
      8 C          -2.4027    0.6983    0.0000 C.ar    1  UNL1       -0.0597
      9 C           2.4231   -0.6838   -0.0001 C.ar    1  UNL1       -0.0430
     10 C           2.3486    0.6942    0.0001 C.ar    1  UNL1        0.0283
     11 H          -1.2465   -2.4818    0.0000 H       1  UNL1        0.0624
     12 H           1.2587   -2.4779   -0.0001 H       1  UNL1        0.0625
     13 H          -1.1959    2.4691   -0.0001 H       1  UNL1        0.0639
     14 H          -3.3670   -1.2247    0.0000 H       1  UNL1        0.0618
     15 H          -3.3351    1.2553   -0.0001 H       1  UNL1        0.0618
     16 H           3.3782   -1.1958   -0.0001 H       1  UNL1        0.0633
     17 H           3.2490    1.2997    0.0001 H       1  UNL1        0.0830
@<TRIPOS>BOND
     1     1     3   ar
     2     1    10   ar
     3     2     3   ar
     4     2     4   ar
     5     2     5   ar
     6     3     6   ar
     7     4     7   ar
     8     4    11    1
     9     5     9   ar
    10     5    12    1
    11     6     8   ar
    12     6    13    1
    13     7     8   ar
    14     7    14    1
    15     8    15    1
    16     9    10   ar
    17     9    16    1
    18    10    17    1
