@<TRIPOS>MOLECULE
9210
 16 17 0 0 0
SMALL
GASTEIGER

@<TRIPOS>ATOM
      1 N           1.1893    1.3888   -0.0001 N.ar    1  UNL1       -0.2354
      2 N           2.4241   -0.6805   -0.0001 N.ar    1  UNL1       -0.2431
      3 C           0.0071   -0.6979    0.0001 C.ar    1  UNL1        0.0185
      4 C           0.0308    0.7065    0.0001 C.ar    1  UNL1        0.0742
      5 C          -1.2104   -1.4006    0.0000 C.ar    1  UNL1       -0.0511
      6 C          -1.1899    1.3771    0.0000 C.ar    1  UNL1       -0.0356
      7 C          -2.4154   -0.7050    0.0000 C.ar    1  UNL1       -0.0610
      8 C           1.2461   -1.3323   -0.0001 C.ar    1  UNL1        0.0385
      9 C          -2.4047    0.6854   -0.0001 C.ar    1  UNL1       -0.0597
     10 C           2.3229    0.6585    0.0002 C.ar    1  UNL1        0.1166
     11 H          -1.2234   -2.4879    0.0000 H       1  UNL1        0.0625
     12 H          -1.2091    2.4654   -0.0001 H       1  UNL1        0.0639
     13 H           1.3283   -2.4153   -0.0002 H       1  UNL1        0.0837
     14 H          -3.3576   -1.2444    0.0000 H       1  UNL1        0.0618
     15 H          -3.3409    1.2362   -0.0001 H       1  UNL1        0.0618
     16 H           3.2527    1.2142    0.0000 H       1  UNL1        0.1047
@<TRIPOS>BOND
     1     1     4   ar
     2     1    10   ar
     3     2     8   ar
     4     2    10   ar
     5     3     4   ar
     6     3     5   ar
     7     3     8   ar
     8     4     6   ar
     9     5     7   ar
    10     5    11    1
    11     6     9   ar
    12     6    12    1
    13     7     9   ar
    14     7    14    1
    15     8    13    1
    16     9    15    1
    17    10    16    1
