@<TRIPOS>MOLECULE
14526
 17 18 0 0 0
SMALL
GASTEIGER

@<TRIPOS>ATOM
      1 O          -3.3358    0.6859   -0.0003 O.2     1  UNL1       -0.2662
      2 N          -1.0599    1.1498   -0.0001 N.ar    1  UNL1       -0.3196
      3 N          -0.6885   -1.6384   -0.0001 N.ar    1  UNL1       -0.2481
      4 C           0.2394    0.6280    0.0000 C.ar    1  UNL1        0.0676
      5 C           0.4080   -0.7605    0.0000 C.ar    1  UNL1        0.0873
      6 C           1.3385    1.4888    0.0002 C.ar    1  UNL1       -0.0362
      7 C           1.7061   -1.2807   -0.0001 C.ar    1  UNL1       -0.0343
      8 C           2.6266    0.9567    0.0000 C.ar    1  UNL1       -0.0597
      9 C           2.8104   -0.4258   -0.0001 C.ar    1  UNL1       -0.0596
     10 C          -2.1657    0.3333    0.0002 C.ar    1  UNL1        0.2674
     11 C          -1.8792   -1.1369    0.0003 C.ar    1  UNL1        0.0925
     12 H          -1.1826    2.1580   -0.0003 H       1  UNL1        0.1690
     13 H           1.2037    2.5669    0.0003 H       1  UNL1        0.0639
     14 H           1.8660   -2.3561   -0.0002 H       1  UNL1        0.0639
     15 H           3.4877    1.6185    0.0000 H       1  UNL1        0.0618
     16 H           3.8150   -0.8390   -0.0002 H       1  UNL1        0.0618
     17 H          -2.7655   -1.7911    0.0002 H       1  UNL1        0.0885
@<TRIPOS>BOND
     1     1    10    2
     2     2     4   ar
     3     2    10   ar
     4     2    12    1
     5     3     5   ar
     6     3    11   ar
     7     4     5   ar
     8     4     6   ar
     9     5     7   ar
    10     6     8   ar
    11     6    13    1
    12     7     9   ar
    13     7    14    1
    14     8     9   ar
    15     8    15    1
    16     9    16    1
    17    10    11   ar
    18    11    17    1
