@<TRIPOS>MOLECULE
71073
 14 15 0 0 0
SMALL
GASTEIGER

@<TRIPOS>ATOM
      1 O          -1.5378   -1.1015    0.0000 O.2     1  UNL1       -0.3547
      2 N          -2.4136   -0.0227   -0.0004 N.ar    1  UNL1       -0.0855
      3 C          -0.2641    0.7407    0.0002 C.ar    1  UNL1        0.0411
      4 C          -0.2562   -0.6432    0.0001 C.ar    1  UNL1        0.1672
      5 C           0.9580    1.4290    0.0001 C.ar    1  UNL1       -0.0494
      6 C           0.8980   -1.4209    0.0002 C.ar    1  UNL1       -0.0161
      7 C          -1.6349    1.0632    0.0002 C.ar    1  UNL1        0.0778
      8 C           2.1414    0.6769   -0.0002 C.ar    1  UNL1       -0.0609
      9 C           2.1093   -0.7216   -0.0001 C.ar    1  UNL1       -0.0582
     10 H           0.9962    2.5137    0.0000 H       1  UNL1        0.0625
     11 H           0.8633   -2.5035    0.0002 H       1  UNL1        0.0655
     12 H          -2.1003    2.0382    0.0002 H       1  UNL1        0.0870
     13 H           3.0996    1.1903   -0.0005 H       1  UNL1        0.0618
     14 H           3.0444   -1.2765   -0.0002 H       1  UNL1        0.0619
@<TRIPOS>BOND
     1     1     2   ar
     2     1     4   ar
     3     2     7   ar
     4     3     4   ar
     5     3     5   ar
     6     3     7   ar
     7     4     6   ar
     8     5     8   ar
     9     5    10    1
    10     6     9   ar
    11     6    11    1
    12     7    12    1
    13     8     9   ar
    14     8    13    1
    15     9    14    1
