@<TRIPOS>MOLECULE
9225
 14 15 0 0 0
SMALL
GASTEIGER

@<TRIPOS>ATOM
      1 S          -1.8107    1.2950    0.0000 S.2     1  UNL1        0.0116
      2 N          -2.5493   -0.1873    0.0000 N.ar    1  UNL1       -0.2176
      3 C          -0.2389   -0.6902    0.0000 C.ar    1  UNL1        0.0088
      4 C          -0.1943    0.7056    0.0000 C.ar    1  UNL1        0.0393
      5 C           0.9811   -1.4016    0.0002 C.ar    1  UNL1       -0.0520
      6 C           1.0161    1.4163    0.0001 C.ar    1  UNL1       -0.0460
      7 C          -1.6046   -1.1219   -0.0001 C.ar    1  UNL1        0.0444
      8 C           2.1929   -0.7032    0.0000 C.ar    1  UNL1       -0.0611
      9 C           2.2077    0.6874   -0.0001 C.ar    1  UNL1       -0.0606
     10 H           0.9852   -2.4884    0.0003 H       1  UNL1        0.0624
     11 H           1.0329    2.5017    0.0002 H       1  UNL1        0.0629
     12 H          -1.9349   -2.1524    0.0000 H       1  UNL1        0.0843
     13 H           3.1298   -1.2536   -0.0001 H       1  UNL1        0.0618
     14 H           3.1577    1.2154   -0.0002 H       1  UNL1        0.0618
@<TRIPOS>BOND
     1     1     2   ar
     2     1     4   ar
     3     2     7   ar
     4     3     4   ar
     5     3     5   ar
     6     3     7   ar
     7     4     6   ar
     8     5     8   ar
     9     5    10    1
    10     6     9   ar
    11     6    11    1
    12     7    12    1
    13     8     9   ar
    14     8    13    1
    15     9    14    1
