@<TRIPOS>MOLECULE
6451464
 7 7 0 0 0
SMALL
GASTEIGER

@<TRIPOS>ATOM
      1 S          -0.9943    1.0064   -0.0002 S.2     1  UNL1        0.0247
      2 N           1.2201   -0.2252   -0.0001 N.ar    1  UNL1       -0.2346
      3 N          -1.1019   -0.6636    0.0001 N.ar    1  UNL1       -0.1977
      4 C           0.7217    0.9916    0.0002 C.ar    1  UNL1        0.0848
      5 C           0.1545   -1.1092   -0.0001 C.ar    1  UNL1        0.1251
      6 H           1.3290    1.8858    0.0003 H       1  UNL1        0.0923
      7 H           0.3305   -2.1758   -0.0001 H       1  UNL1        0.1054
@<TRIPOS>BOND
     1     1     3   ar
     2     1     4   ar
     3     2     4   ar
     4     2     5   ar
     5     3     5   ar
     6     4     6    1
     7     5     7    1
