@<TRIPOS>MOLECULE
6451463
 7 7 0 0 0
SMALL
GASTEIGER

@<TRIPOS>ATOM
      1 O           0.7194    0.9140   -0.0002 O.2     1  UNL1       -0.3417
      2 N          -1.1613   -0.3024    0.0000 N.ar    1  UNL1       -0.2024
      3 N           1.1230   -0.4272    0.0002 N.ar    1  UNL1       -0.0651
      4 C          -0.6393    0.8981    0.0001 C.ar    1  UNL1        0.2141
      5 C          -0.0418   -1.0824   -0.0001 C.ar    1  UNL1        0.1586
      6 H          -1.1402    1.8537    0.0002 H       1  UNL1        0.1283
      7 H          -0.0725   -2.1614   -0.0002 H       1  UNL1        0.1082
@<TRIPOS>BOND
     1     1     3   ar
     2     1     4   ar
     3     2     4   ar
     4     2     5   ar
     5     3     5   ar
     6     4     6    1
     7     5     7    1
