@<TRIPOS>MOLECULE
97428
 7 7 0 0 0
SMALL
GASTEIGER

@<TRIPOS>ATOM
      1 O           1.1971    0.0003    0.0000 O.2     1  UNL1       -0.4300
      2 N          -0.9303   -0.6914    0.0001 N.ar    1  UNL1       -0.1162
      3 N          -0.9307    0.6910   -0.0001 N.ar    1  UNL1       -0.1162
      4 C           0.3321   -1.0506   -0.0001 C.ar    1  UNL1        0.2040
      5 C           0.3317    1.0508    0.0001 C.ar    1  UNL1        0.2040
      6 H           0.7575   -2.0419    0.0000 H       1  UNL1        0.1272
      7 H           0.7566    2.0423    0.0000 H       1  UNL1        0.1272
@<TRIPOS>BOND
     1     1     4   ar
     2     1     5   ar
     3     2     3   ar
     4     2     4   ar
     5     3     5   ar
     6     4     6    1
     7     5     7    1
