@<TRIPOS>MOLECULE
119391
 7 7 0 0 0
SMALL
GASTEIGER

@<TRIPOS>ATOM
      1 S          -1.4849   -0.0015    0.0000 S.2     1  UNL1       -0.0621
      2 N           0.9814    0.6929    0.0001 N.ar    1  UNL1       -0.1500
      3 N           0.9832   -0.6910    0.0000 N.ar    1  UNL1       -0.1500
      4 C          -0.2411    1.1797   -0.0001 C.ar    1  UNL1        0.0884
      5 C          -0.2386   -1.1801    0.0000 C.ar    1  UNL1        0.0884
      6 H          -0.4472    2.2407   -0.0001 H       1  UNL1        0.0926
      7 H          -0.4425   -2.2416    0.0000 H       1  UNL1        0.0926
@<TRIPOS>BOND
     1     1     4   ar
     2     1     5   ar
     3     2     3   ar
     4     2     4   ar
     5     3     5   ar
     6     4     6    1
     7     5     7    1
