@<TRIPOS>MOLECULE
9228
 14 15 0 0 0
SMALL
GASTEIGER

@<TRIPOS>ATOM
      1 O          -1.5325   -1.1551    0.0000 O.2     1  UNL1       -0.4425
      2 N          -1.6239    1.1095   -0.0001 N.ar    1  UNL1       -0.2161
      3 C          -0.2515   -0.6824    0.0000 C.ar    1  UNL1        0.1550
      4 C          -0.3114    0.7035   -0.0001 C.ar    1  UNL1        0.1093
      5 C           0.9233   -1.4241    0.0000 C.ar    1  UNL1       -0.0172
      6 C           0.8858    1.4335    0.0000 C.ar    1  UNL1       -0.0326
      7 C           2.1086   -0.6808    0.0000 C.ar    1  UNL1       -0.0582
      8 C           2.0929    0.7195    0.0000 C.ar    1  UNL1       -0.0595
      9 C          -2.2913   -0.0235    0.0001 C.ar    1  UNL1        0.1831
     10 H           0.9246   -2.5069    0.0000 H       1  UNL1        0.0655
     11 H           0.8856    2.5184    0.0001 H       1  UNL1        0.0640
     12 H           3.0629   -1.2022    0.0001 H       1  UNL1        0.0619
     13 H           3.0338    1.2642    0.0001 H       1  UNL1        0.0618
     14 H          -3.3618   -0.1636    0.0003 H       1  UNL1        0.1255
@<TRIPOS>BOND
     1     1     3   ar
     2     1     9   ar
     3     2     4   ar
     4     2     9   ar
     5     3     4   ar
     6     3     5   ar
     7     4     6   ar
     8     5     7   ar
     9     5    10    1
    10     6     8   ar
    11     6    11    1
    12     7     8   ar
    13     7    12    1
    14     8    13    1
    15     9    14    1
