@<TRIPOS>MOLECULE
7222
 14 15 0 0 0
SMALL
GASTEIGER

@<TRIPOS>ATOM
      1 S          -1.8133    1.3712   -0.0001 S.2     1  UNL1       -0.0754
      2 N          -1.5561   -1.1951    0.0000 N.ar    1  UNL1       -0.2474
      3 C          -0.2112    0.7337    0.0000 C.ar    1  UNL1        0.0389
      4 C          -0.2750   -0.6630    0.0000 C.ar    1  UNL1        0.0782
      5 C           1.0137    1.4201    0.0000 C.ar    1  UNL1       -0.0459
      6 C           0.9314   -1.3963   -0.0001 C.ar    1  UNL1       -0.0352
      7 C           2.1928    0.6706    0.0001 C.ar    1  UNL1       -0.0606
      8 C           2.1545   -0.7195    0.0000 C.ar    1  UNL1       -0.0597
      9 C          -2.4366   -0.2216    0.0001 C.ar    1  UNL1        0.0659
     10 H           1.0513    2.5052    0.0000 H       1  UNL1        0.0629
     11 H           0.9132   -2.4825   -0.0001 H       1  UNL1        0.0639
     12 H           3.1516    1.1823    0.0001 H       1  UNL1        0.0618
     13 H           3.0819   -1.2857    0.0000 H       1  UNL1        0.0618
     14 H          -3.5012   -0.4113    0.0002 H       1  UNL1        0.0907
@<TRIPOS>BOND
     1     1     3   ar
     2     1     9   ar
     3     2     4   ar
     4     2     9   ar
     5     3     4   ar
     6     3     5   ar
     7     4     6   ar
     8     5     7   ar
     9     5    10    1
    10     6     8   ar
    11     6    11    1
    12     7     8   ar
    13     7    12    1
    14     8    13    1
    15     9    14    1
