@<TRIPOS>MOLECULE
7221
 15 16 0 0 0
SMALL
GASTEIGER

@<TRIPOS>ATOM
      1 S          -1.8105   -1.3556    0.0000 S.2     1  UNL1       -0.0966
      2 C          -0.2425    0.7003    0.0000 C.ar    1  UNL1       -0.0108
      3 C          -0.2165   -0.6977    0.0000 C.ar    1  UNL1        0.0193
      4 C           0.9925    1.3927    0.0000 C.ar    1  UNL1       -0.0535
      5 C          -1.5901    1.1947    0.0000 C.ar    1  UNL1       -0.0470
      6 C           0.9978   -1.4118    0.0000 C.ar    1  UNL1       -0.0474
      7 C           2.1988    0.6874    0.0000 C.ar    1  UNL1       -0.0611
      8 C           2.1990   -0.7003    0.0000 C.ar    1  UNL1       -0.0607
      9 C          -2.5285    0.1903    0.0000 C.ar    1  UNL1       -0.0232
     10 H           1.0086    2.4799   -0.0001 H       1  UNL1        0.0624
     11 H          -1.8533    2.2453    0.0000 H       1  UNL1        0.0629
     12 H           1.0076   -2.4981   -0.0001 H       1  UNL1        0.0629
     13 H           3.1399    1.2301    0.0000 H       1  UNL1        0.0618
     14 H           3.1420   -1.2402    0.0001 H       1  UNL1        0.0618
     15 H          -3.6043    0.2951    0.0000 H       1  UNL1        0.0694
@<TRIPOS>BOND
     1     1     3   ar
     2     1     9   ar
     3     2     3   ar
     4     2     4   ar
     5     2     5   ar
     6     3     6   ar
     7     4     7   ar
     8     4    10    1
     9     5     9   ar
    10     5    11    1
    11     6     8   ar
    12     6    12    1
    13     7     8   ar
    14     7    13    1
    15     8    14    1
    16     9    15    1
