@<TRIPOS>MOLECULE
568
 21 23 0 0 0
SMALL
GASTEIGER

@<TRIPOS>ATOM
      1 O           0.0001   -1.6238    0.0003 O.2     1  UNL1       -0.4548
      2 C           0.7128    0.5224    0.0001 C.ar    1  UNL1        0.0279
      3 C          -0.7128    0.5225    0.0002 C.ar    1  UNL1        0.0279
      4 C           1.0961   -0.8151    0.0001 C.ar    1  UNL1        0.1362
      5 C          -1.0961   -0.8151    0.0002 C.ar    1  UNL1        0.1362
      6 C           1.7187    1.5064    0.0003 C.ar    1  UNL1       -0.0504
      7 C          -1.7187    1.5065    0.0001 C.ar    1  UNL1       -0.0504
      8 C           2.4208   -1.2488    0.0000 C.ar    1  UNL1       -0.0187
      9 C          -2.4208   -1.2489   -0.0001 C.ar    1  UNL1       -0.0187
     10 C           3.0601    1.1005    0.0000 C.ar    1  UNL1       -0.0610
     11 C          -3.0601    1.1005   -0.0003 C.ar    1  UNL1       -0.0610
     12 C           3.4022   -0.2535   -0.0007 C.ar    1  UNL1       -0.0582
     13 C          -3.4023   -0.2536   -0.0003 C.ar    1  UNL1       -0.0582
     14 H           1.4691    2.5632    0.0005 H       1  UNL1        0.0625
     15 H          -1.4692    2.5634    0.0001 H       1  UNL1        0.0625
     16 H           2.6788   -2.3012   -0.0001 H       1  UNL1        0.0654
     17 H          -2.6788   -2.3013   -0.0002 H       1  UNL1        0.0654
     18 H           3.8453    1.8522   -0.0001 H       1  UNL1        0.0618
     19 H          -3.8454    1.8522   -0.0005 H       1  UNL1        0.0618
     20 H           4.4511   -0.5395   -0.0011 H       1  UNL1        0.0619
     21 H          -4.4512   -0.5395   -0.0005 H       1  UNL1        0.0619
@<TRIPOS>BOND
     1     1     4   ar
     2     1     5   ar
     3     2     3   ar
     4     2     4   ar
     5     2     6   ar
     6     3     5   ar
     7     3     7   ar
     8     4     8   ar
     9     5     9   ar
    10     6    10   ar
    11     6    14    1
    12     7    11   ar
    13     7    15    1
    14     8    12   ar
    15     8    16    1
    16     9    13   ar
    17     9    17    1
    18    10    12   ar
    19    10    18    1
    20    11    13   ar
    21    11    19    1
    22    12    20    1
    23    13    21    1
