@<TRIPOS>MOLECULE
8029
 9 9 0 0 0
SMALL
GASTEIGER

@<TRIPOS>ATOM
      1 O           1.1781    0.0040    0.0000 O.2     1  UNL1       -0.4710
      2 C          -0.9576    0.7044    0.0000 C.ar    1  UNL1       -0.0239
      3 C          -0.9527   -0.7109    0.0000 C.ar    1  UNL1       -0.0239
      4 C           0.3624    1.0909   -0.0001 C.ar    1  UNL1        0.0917
      5 C           0.3700   -1.0884    0.0000 C.ar    1  UNL1        0.0917
      6 H          -1.8158    1.3607    0.0001 H       1  UNL1        0.0649
      7 H          -1.8065   -1.3731    0.0000 H       1  UNL1        0.0649
      8 H           0.8609    2.0492    0.0000 H       1  UNL1        0.1029
      9 H           0.8748   -2.0433    0.0000 H       1  UNL1        0.1029
@<TRIPOS>BOND
     1     1     4   ar
     2     1     5   ar
     3     2     3   ar
     4     2     4   ar
     5     2     6    1
     6     3     5   ar
     7     3     7    1
     8     4     8    1
     9     5     9    1
