@<TRIPOS>MOLECULE
12421098
 14 15 0 0 0
SMALL
GASTEIGER

@<TRIPOS>ATOM
      1 O          -1.5126    1.1185    0.0003 O.2     1  UNL1       -0.4450
      2 N           0.8527    1.4298   -0.0001 N.ar    1  UNL1       -0.2205
      3 C          -0.2574   -0.7567    0.0000 C.ar    1  UNL1        0.0398
      4 C          -0.2359    0.6368   -0.0001 C.ar    1  UNL1        0.2270
      5 C          -1.6251   -1.1291    0.0001 C.ar    1  UNL1       -0.0145
      6 C           0.9755   -1.4258    0.0000 C.ar    1  UNL1       -0.0480
      7 C          -2.3431    0.0440   -0.0002 C.ar    1  UNL1        0.0951
      8 C           2.1335   -0.6505    0.0000 C.ar    1  UNL1       -0.0428
      9 C           2.0124    0.7329    0.0000 C.ar    1  UNL1        0.0314
     10 H          -2.0376   -2.1280    0.0000 H       1  UNL1        0.0656
     11 H           1.0336   -2.5093    0.0000 H       1  UNL1        0.0626
     12 H          -3.3991    0.2715   -0.0003 H       1  UNL1        0.1030
     13 H           3.1113   -1.1202    0.0000 H       1  UNL1        0.0633
     14 H           2.9061    1.3516    0.0001 H       1  UNL1        0.0831
@<TRIPOS>BOND
     1     1     4   ar
     2     1     7   ar
     3     2     4   ar
     4     2     9   ar
     5     3     4   ar
     6     3     5   ar
     7     3     6   ar
     8     5     7   ar
     9     5    10    1
    10     6     8   ar
    11     6    11    1
    12     7    12    1
    13     8     9   ar
    14     8    13    1
    15     9    14    1
