@<TRIPOS>MOLECULE
12210217
 14 15 0 0 0
SMALL
GASTEIGER

@<TRIPOS>ATOM
      1 O          -1.5284   -1.1360   -0.0001 O.2     1  UNL1       -0.4613
      2 N           0.9030    1.4431    0.0001 N.ar    1  UNL1       -0.2518
      3 C          -0.2485   -0.6736    0.0000 C.ar    1  UNL1        0.1529
      4 C          -0.2407    0.7146    0.0000 C.ar    1  UNL1        0.1088
      5 C          -1.5957    1.1192    0.0000 C.ar    1  UNL1        0.0022
      6 C           0.9160   -1.4293    0.0001 C.ar    1  UNL1       -0.0158
      7 C          -2.3374   -0.0416    0.0001 C.ar    1  UNL1        0.0947
      8 C           2.0978   -0.6935    0.0000 C.ar    1  UNL1       -0.0401
      9 C           2.0341    0.6971   -0.0001 C.ar    1  UNL1        0.0285
     10 H          -1.9868    2.1264    0.0001 H       1  UNL1        0.0670
     11 H           0.9074   -2.5116    0.0001 H       1  UNL1        0.0655
     12 H          -3.3978   -0.2481    0.0000 H       1  UNL1        0.1030
     13 H           3.0582   -1.1989    0.0000 H       1  UNL1        0.0634
     14 H           2.9528    1.2779   -0.0002 H       1  UNL1        0.0830
@<TRIPOS>BOND
     1     1     3   ar
     2     1     7   ar
     3     2     4   ar
     4     2     9   ar
     5     3     4   ar
     6     3     6   ar
     7     4     5   ar
     8     5     7   ar
     9     5    10    1
    10     6     8   ar
    11     6    11    1
    12     7    12    1
    13     8     9   ar
    14     8    13    1
    15     9    14    1
