@<TRIPOS>MOLECULE
67515
 8 8 0 0 0
SMALL
GASTEIGER

@<TRIPOS>ATOM
      1 S           0.6575   -1.2351    0.0000 S.2     1  UNL1        0.0031
      2 N           1.2411    0.3212    0.0000 N.ar    1  UNL1       -0.2187
      3 C          -1.0986    0.5685    0.0000 C.ar    1  UNL1       -0.0351
      4 C          -1.0008   -0.8061    0.0000 C.ar    1  UNL1       -0.0043
      5 C           0.2008    1.1515    0.0000 C.ar    1  UNL1        0.0366
      6 H          -2.0324    1.1142    0.0000 H       1  UNL1        0.0638
      7 H          -1.7897   -1.5445    0.0000 H       1  UNL1        0.0709
      8 H           0.4146    2.2117    0.0001 H       1  UNL1        0.0836
@<TRIPOS>BOND
     1     1     2   ar
     2     1     4   ar
     3     2     5   ar
     4     3     4   ar
     5     3     5   ar
     6     3     6    1
     7     4     7    1
     8     5     8    1
