@<TRIPOS>MOLECULE
9254
 8 8 0 0 0
SMALL
GASTEIGER

@<TRIPOS>ATOM
      1 O          -0.4197    1.0710    0.0000 O.2     1  UNL1       -0.3630
      2 N          -1.1899   -0.0856    0.0000 N.ar    1  UNL1       -0.0868
      3 C           1.0215   -0.6303    0.0000 C.ar    1  UNL1       -0.0030
      4 C           0.8954    0.7337    0.0000 C.ar    1  UNL1        0.1242
      5 C          -0.3072   -1.0887    0.0000 C.ar    1  UNL1        0.0700
      6 H           1.9354   -1.2047    0.0001 H       1  UNL1        0.0665
      7 H           1.5939    1.5570    0.0000 H       1  UNL1        0.1057
      8 H          -0.6710   -2.1056    0.0000 H       1  UNL1        0.0864
@<TRIPOS>BOND
     1     1     2   ar
     2     1     4   ar
     3     2     5   ar
     4     3     4   ar
     5     3     5   ar
     6     3     6    1
     7     4     7    1
     8     5     8    1
