@<TRIPOS>MOLECULE
9255
 8 8 0 0 0
SMALL
GASTEIGER

@<TRIPOS>ATOM
      1 O           1.0344   -0.5851    0.0000 O.2     1  UNL1       -0.4506
      2 N          -1.1845   -0.1478    0.0001 N.ar    1  UNL1       -0.2247
      3 C           0.8691    0.7669    0.0001 C.ar    1  UNL1        0.1118
      4 C          -0.4785    1.0278   -0.0001 C.ar    1  UNL1        0.0657
      5 C          -0.2406   -1.0618    0.0000 C.ar    1  UNL1        0.1816
      6 H           1.7683    1.3643    0.0001 H       1  UNL1        0.1046
      7 H          -0.9729    1.9877   -0.0001 H       1  UNL1        0.0862
      8 H          -0.3534   -2.1355    0.0000 H       1  UNL1        0.1254
@<TRIPOS>BOND
     1     1     3   ar
     2     1     5   ar
     3     2     4   ar
     4     2     5   ar
     5     3     4   ar
     6     3     6    1
     7     4     7    1
     8     5     8    1
