@<TRIPOS>MOLECULE
9256
 8 8 0 0 0
SMALL
GASTEIGER

@<TRIPOS>ATOM
      1 S          -1.3916    0.4881    0.0004 S.2     1  UNL1       -0.0839
      2 N           1.1894    0.3447    0.0001 N.ar    1  UNL1       -0.2557
      3 C          -0.6744   -1.0697   -0.0004 C.ar    1  UNL1       -0.0048
      4 C           0.6993   -0.9465    0.0003 C.ar    1  UNL1        0.0347
      5 C           0.1773    1.1834   -0.0003 C.ar    1  UNL1        0.0647
      6 H          -1.2708   -1.9708   -0.0007 H       1  UNL1        0.0709
      7 H           1.3952   -1.7746    0.0005 H       1  UNL1        0.0835
      8 H           0.3186    2.2555   -0.0004 H       1  UNL1        0.0907
@<TRIPOS>BOND
     1     1     3   ar
     2     1     5   ar
     3     2     4   ar
     4     2     5   ar
     5     3     4   ar
     6     3     6    1
     7     4     7    1
     8     5     8    1
