@<TRIPOS>MOLECULE
12210218
 14 15 0 0 0
SMALL
GASTEIGER

@<TRIPOS>ATOM
      1 S          -1.7969   -1.3602    0.0001 S.2     1  UNL1       -0.0951
      2 N           0.9346    1.4100    0.0000 N.ar    1  UNL1       -0.2544
      3 C          -0.1985   -0.7277    0.0000 C.ar    1  UNL1        0.0375
      4 C          -0.2073    0.6679    0.0000 C.ar    1  UNL1        0.0780
      5 C          -1.5352    1.1920   -0.0002 C.ar    1  UNL1       -0.0287
      6 C           1.0196   -1.4217   -0.0001 C.ar    1  UNL1       -0.0445
      7 C          -2.4896    0.2010    0.0001 C.ar    1  UNL1       -0.0217
      8 C           2.1875   -0.6700    0.0000 C.ar    1  UNL1       -0.0425
      9 C           2.0858    0.7085    0.0002 C.ar    1  UNL1        0.0283
     10 H          -1.7789    2.2470   -0.0003 H       1  UNL1        0.0644
     11 H           1.0552   -2.5062   -0.0002 H       1  UNL1        0.0630
     12 H          -3.5637    0.3218    0.0002 H       1  UNL1        0.0694
     13 H           3.1573   -1.1555    0.0000 H       1  UNL1        0.0633
     14 H           2.9850    1.3183    0.0002 H       1  UNL1        0.0830
@<TRIPOS>BOND
     1     1     3   ar
     2     1     7   ar
     3     2     4   ar
     4     2     9   ar
     5     3     4   ar
     6     3     6   ar
     7     4     5   ar
     8     5     7   ar
     9     5    10    1
    10     6     8   ar
    11     6    11    1
    12     7    12    1
    13     8     9   ar
    14     8    13    1
    15     9    14    1
