@<TRIPOS>MOLECULE
12225304
 13 14 0 0 0
SMALL
GASTEIGER

@<TRIPOS>ATOM
      1 S          -1.7444    1.3472   -0.0003 S.2     1  UNL1       -0.0770
      2 N           0.9184    1.4349    0.0000 N.ar    1  UNL1       -0.2283
      3 N           2.1734   -0.6397    0.0000 N.ar    1  UNL1       -0.2430
      4 C          -0.2084   -0.7278    0.0000 C.ar    1  UNL1        0.0257
      5 C          -0.1845    0.6609    0.0001 C.ar    1  UNL1        0.1113
      6 C          -1.5536   -1.2140    0.0003 C.ar    1  UNL1       -0.0440
      7 C           1.0357   -1.3670   -0.0004 C.ar    1  UNL1        0.0390
      8 C          -2.4825   -0.1961    0.0001 C.ar    1  UNL1       -0.0217
      9 C           2.0460    0.7017    0.0002 C.ar    1  UNL1        0.1172
     10 H          -1.8273   -2.2617    0.0004 H       1  UNL1        0.0630
     11 H           1.1509   -2.4443   -0.0005 H       1  UNL1        0.0837
     12 H          -3.5596   -0.2870    0.0001 H       1  UNL1        0.0694
     13 H           2.9741    1.2628    0.0004 H       1  UNL1        0.1047
@<TRIPOS>BOND
     1     1     5   ar
     2     1     8   ar
     3     2     5   ar
     4     2     9   ar
     5     3     7   ar
     6     3     9   ar
     7     4     5   ar
     8     4     6   ar
     9     4     7   ar
    10     6     8   ar
    11     6    10    1
    12     7    11    1
    13     8    12    1
    14     9    13    1
