@<TRIPOS>MOLECULE
12603004
 13 14 0 0 0
SMALL
GASTEIGER

@<TRIPOS>ATOM
      1 S           1.7747    1.3723    0.0000 S.2     1  UNL1       -0.0936
      2 N          -0.9297   -1.4155    0.0000 N.ar    1  UNL1       -0.2349
      3 N          -2.1755    0.6596    0.0000 N.ar    1  UNL1       -0.2426
      4 C           0.2091   -0.6724    0.0000 C.ar    1  UNL1        0.0812
      5 C           0.1867    0.7216    0.0000 C.ar    1  UNL1        0.0556
      6 C           1.5412   -1.1838    0.0000 C.ar    1  UNL1       -0.0286
      7 C          -1.0370    1.3810    0.0000 C.ar    1  UNL1        0.0451
      8 C           2.4849   -0.1821    0.0000 C.ar    1  UNL1       -0.0216
      9 C          -2.0544   -0.6807    0.0000 C.ar    1  UNL1        0.1166
     10 H           1.7957   -2.2361    0.0000 H       1  UNL1        0.0644
     11 H          -1.1352    2.4589    0.0000 H       1  UNL1        0.0842
     12 H           3.5603   -0.2908    0.0000 H       1  UNL1        0.0694
     13 H          -2.9842   -1.2386    0.0000 H       1  UNL1        0.1047
@<TRIPOS>BOND
     1     1     5   ar
     2     1     8   ar
     3     2     4   ar
     4     2     9   ar
     5     3     7   ar
     6     3     9   ar
     7     4     5   ar
     8     4     6   ar
     9     5     7   ar
    10     6     8   ar
    11     6    10    1
    12     7    11    1
    13     8    12    1
    14     9    13    1
