@<TRIPOS>MOLECULE
289928
 14 15 0 0 0
SMALL
GASTEIGER

@<TRIPOS>ATOM
      1 S           1.7369   -1.3579   -0.0001 S.2     1  UNL1       -0.0771
      2 N          -0.9243   -1.4284    0.0003 N.ar    1  UNL1       -0.2479
      3 C           0.2221    0.7343    0.0003 C.ar    1  UNL1        0.0076
      4 C           0.1826   -0.6561    0.0002 C.ar    1  UNL1        0.1081
      5 C           1.5748    1.2042    0.0003 C.ar    1  UNL1       -0.0455
      6 C          -1.0179    1.4049    0.0001 C.ar    1  UNL1       -0.0506
      7 C           2.4918    0.1762   -0.0005 C.ar    1  UNL1       -0.0217
      8 C          -2.1873    0.6511   -0.0005 C.ar    1  UNL1       -0.0430
      9 C          -2.0787   -0.7282   -0.0001 C.ar    1  UNL1        0.0289
     10 H           1.8603    2.2488    0.0004 H       1  UNL1        0.0629
     11 H          -1.0658    2.4899    0.0000 H       1  UNL1        0.0625
     12 H           3.5698    0.2551   -0.0009 H       1  UNL1        0.0694
     13 H          -3.1583    1.1339   -0.0008 H       1  UNL1        0.0633
     14 H          -2.9758   -1.3413   -0.0002 H       1  UNL1        0.0830
@<TRIPOS>BOND
     1     1     4   ar
     2     1     7   ar
     3     2     4   ar
     4     2     9   ar
     5     3     4   ar
     6     3     5   ar
     7     3     6   ar
     8     5     7   ar
     9     5    10    1
    10     6     8   ar
    11     6    11    1
    12     7    12    1
    13     8     9   ar
    14     8    13    1
    15     9    14    1
