@<TRIPOS>MOLECULE
8030
 9 9 0 0 0
SMALL
GASTEIGER

@<TRIPOS>ATOM
      1 S           1.4640   -0.0011    0.0000 S.2     1  UNL1       -0.1051
      2 C          -1.0037    0.7132    0.0000 C.ar    1  UNL1       -0.0547
      3 C          -1.0050   -0.7116    0.0001 C.ar    1  UNL1       -0.0547
      4 C           0.2733    1.2295    0.0000 C.ar    1  UNL1       -0.0243
      5 C           0.2713   -1.2300   -0.0001 C.ar    1  UNL1       -0.0243
      6 H          -1.8943    1.3282    0.0000 H       1  UNL1        0.0623
      7 H          -1.8965   -1.3252    0.0001 H       1  UNL1        0.0623
      8 H           0.5641    2.2705    0.0000 H       1  UNL1        0.0693
      9 H           0.5605   -2.2715   -0.0002 H       1  UNL1        0.0693
@<TRIPOS>BOND
     1     1     4   ar
     2     1     5   ar
     3     2     3   ar
     4     2     4   ar
     5     2     6    1
     6     3     5   ar
     7     3     7    1
     8     4     8    1
     9     5     9    1
