@<TRIPOS>MOLECULE
2_deoxy_d_ribose
 19 18 0 0 0
SMALL
GASTEIGER

@<TRIPOS>ATOM
      1 O           0.5988    0.9173    1.0080 O.3     1  UNL1       -0.3887
      2 O          -1.7868    1.4517   -0.4992 O.3     1  UNL1       -0.3870
      3 O          -3.1912   -0.8741    0.2023 O.3     1  UNL1       -0.3924
      4 O           3.1695    0.3181    0.1666 O.2     1  UNL1       -0.3009
      5 C           0.3666    0.3866   -0.2979 C.3     1  UNL1        0.0896
      6 C          -1.1402    0.1745   -0.5181 C.3     1  UNL1        0.1044
      7 C           1.1575   -0.9159   -0.4243 C.3     1  UNL1        0.0313
      8 C          -1.8109   -0.7215    0.5227 C.3     1  UNL1        0.0726
      9 C           2.6366   -0.7367   -0.1600 C.2     1  UNL1        0.1228
     10 H           0.7460    1.1323   -1.0060 H       1  UNL1        0.0624
     11 H          -1.3167   -0.2439   -1.5163 H       1  UNL1        0.0642
     12 H           0.8240   -1.6602    0.3061 H       1  UNL1        0.0365
     13 H           1.0436   -1.3377   -1.4282 H       1  UNL1        0.0365
     14 H          -1.3650   -1.7186    0.5510 H       1  UNL1        0.0584
     15 H          -1.7635   -0.2724    1.5196 H       1  UNL1        0.0584
     16 H           0.4212    0.2187    1.6600 H       1  UNL1        0.2099
     17 H          -1.3890    1.9921   -1.2030 H       1  UNL1        0.2100
     18 H           3.2408   -1.6535   -0.2737 H       1  UNL1        0.1027
     19 H          -3.5812   -1.4442    0.8867 H       1  UNL1        0.2095
@<TRIPOS>BOND
     1     1     5    1
     2     1    16    1
     3     2     6    1
     4     2    17    1
     5     3     8    1
     6     3    19    1
     7     4     9    2
     8     5     6    1
     9     5     7    1
    10     5    10    1
    11     6     8    1
    12     6    11    1
    13     7     9    1
    14     7    12    1
    15     7    13    1
    16     8    14    1
    17     8    15    1
    18     9    18    1
