@<TRIPOS>MOLECULE
alpha_d_mannopyranose
 24 24 0 0 0
SMALL
GASTEIGER

@<TRIPOS>ATOM
      1 O          -0.8050    1.0754    0.4113 O.3     1  UNL1       -0.3407
      2 O          -0.2357   -2.4061   -0.6093 O.3     1  UNL1       -0.3865
      3 O           2.4601   -1.4416   -0.0575 O.3     1  UNL1       -0.3864
      4 O           1.8104    0.7174    1.5472 O.3     1  UNL1       -0.3841
      5 O           0.2788    1.9996   -1.4869 O.3     1  UNL1       -0.3649
      6 O          -3.4086    0.2694    0.2108 O.3     1  UNL1       -0.3924
      7 C           0.0497   -1.1927    0.0815 C.3     1  UNL1        0.1119
      8 C           1.3667   -0.6081   -0.4324 C.3     1  UNL1        0.1141
      9 C          -1.0963   -0.2023   -0.1610 C.3     1  UNL1        0.1130
     10 C           1.5975    0.7930    0.1365 C.3     1  UNL1        0.1339
     11 C           0.3828    1.6886   -0.1017 C.3     1  UNL1        0.1854
     12 C          -2.4005   -0.6925    0.4615 C.3     1  UNL1        0.0730
     13 H           0.1460   -1.4299    1.1484 H       1  UNL1        0.0647
     14 H           1.3569   -0.5756   -1.5281 H       1  UNL1        0.0648
     15 H          -1.2702   -0.0683   -1.2371 H       1  UNL1        0.0647
     16 H           2.4969    1.2328   -0.3102 H       1  UNL1        0.0671
     17 H           0.5136    2.6278    0.4479 H       1  UNL1        0.0935
     18 H          -2.2996   -0.7950    1.5471 H       1  UNL1        0.0584
     19 H          -2.7222   -1.6471    0.0357 H       1  UNL1        0.0584
     20 H          -0.9293   -2.8742   -0.1150 H       1  UNL1        0.2100
     21 H           2.3988   -1.6127    0.8974 H       1  UNL1        0.2100
     22 H           2.6563    0.2603    1.6905 H       1  UNL1        0.2101
     23 H          -0.1811    2.8534   -1.5550 H       1  UNL1        0.2126
     24 H          -4.2271   -0.0585    0.6209 H       1  UNL1        0.2095
@<TRIPOS>BOND
     1     1     9    1
     2     1    11    1
     3     2     7    1
     4     2    20    1
     5     3     8    1
     6     3    21    1
     7     4    10    1
     8     4    22    1
     9     5    11    1
    10     5    23    1
    11     6    12    1
    12     6    24    1
    13     7     8    1
    14     7     9    1
    15     7    13    1
    16     8    10    1
    17     8    14    1
    18     9    12    1
    19     9    15    1
    20    10    11    1
    21    10    16    1
    22    11    17    1
    23    12    18    1
    24    12    19    1
