@<TRIPOS>MOLECULE
alpha_d_galactopyranose
 24 24 0 0 0
SMALL
GASTEIGER

@<TRIPOS>ATOM
      1 O           0.8627    0.8621   -0.6327 O.3     1  UNL1       -0.3407
      2 O           0.2925   -1.9663   -0.8431 O.3     1  UNL1       -0.3865
      3 O          -2.1731   -1.7723    0.4150 O.3     1  UNL1       -0.3864
      4 O          -2.7847    0.9572   -0.2571 O.3     1  UNL1       -0.3841
      5 O          -0.5222    2.1941    0.7489 O.3     1  UNL1       -0.3649
      6 O           3.4819    0.5566    0.0936 O.3     1  UNL1       -0.3924
      7 C           0.1933   -1.2536    0.3924 C.3     1  UNL1        0.1119
      8 C          -1.2300   -0.7139    0.5587 C.3     1  UNL1        0.1141
      9 C           1.2020   -0.0975    0.3804 C.3     1  UNL1        0.1130
     10 C          -1.5137    0.3601   -0.4915 C.3     1  UNL1        0.1339
     11 C          -0.4326    1.4435   -0.4613 C.3     1  UNL1        0.1854
     12 C           2.6239   -0.5701    0.0968 C.3     1  UNL1        0.0730
     13 H           0.4210   -1.9703    1.1885 H       1  UNL1        0.0647
     14 H          -1.3604   -0.3038    1.5675 H       1  UNL1        0.0648
     15 H           1.1965    0.4199    1.3483 H       1  UNL1        0.0647
     16 H          -1.5569   -0.1048   -1.4837 H       1  UNL1        0.0671
     17 H          -0.6018    2.1429   -1.2877 H       1  UNL1        0.0935
     18 H           2.7109   -1.0472   -0.8844 H       1  UNL1        0.0584
     19 H           2.9691   -1.2718    0.8618 H       1  UNL1        0.0584
     20 H           0.2818   -1.3222   -1.5709 H       1  UNL1        0.2100
     21 H          -3.0611   -1.3844    0.4979 H       1  UNL1        0.2100
     22 H          -2.9241    1.6305   -0.9449 H       1  UNL1        0.2101
     23 H          -0.1522    3.0746    0.5672 H       1  UNL1        0.2126
     24 H           3.1588    1.1706   -0.5880 H       1  UNL1        0.2095
@<TRIPOS>BOND
     1     1     9    1
     2     1    11    1
     3     2     7    1
     4     2    20    1
     5     3     8    1
     6     3    21    1
     7     4    10    1
     8     4    22    1
     9     5    11    1
    10     5    23    1
    11     6    12    1
    12     6    24    1
    13     7     8    1
    14     7     9    1
    15     7    13    1
    16     8    10    1
    17     8    14    1
    18     9    12    1
    19     9    15    1
    20    10    11    1
    21    10    16    1
    22    11    17    1
    23    12    18    1
    24    12    19    1
