@<TRIPOS>MOLECULE
alpha_d_glucopyranose
 24 24 0 0 0
SMALL
GASTEIGER

@<TRIPOS>ATOM
      1 O          -0.7963   -1.0834   -0.5826 O.3     1  UNL1       -0.3407
      2 O          -0.5345    2.3604    0.7061 O.3     1  UNL1       -0.3865
      3 O           2.1022    1.8449   -0.3108 O.3     1  UNL1       -0.3864
      4 O           2.8396   -0.9429   -0.0664 O.3     1  UNL1       -0.3841
      5 O           0.5453   -2.0350    1.1247 O.3     1  UNL1       -0.3649
      6 O          -3.4321   -0.6821   -0.0417 O.3     1  UNL1       -0.3924
      7 C          -0.2129    1.2445   -0.1209 C.3     1  UNL1        0.1119
      8 C           1.2275    0.8283    0.1841 C.3     1  UNL1        0.1141
      9 C          -1.1906    0.0901    0.1376 C.3     1  UNL1        0.1130
     10 C           1.5610   -0.4949   -0.5021 C.3     1  UNL1        0.1339
     11 C           0.5008   -1.5606   -0.2198 C.3     1  UNL1        0.1854
     12 C          -2.6100    0.4307   -0.3082 C.3     1  UNL1        0.0730
     13 H          -0.2879    1.5719   -1.1660 H       1  UNL1        0.0647
     14 H           1.4050    0.7692    1.2646 H       1  UNL1        0.0648
     15 H          -1.2277   -0.1509    1.2082 H       1  UNL1        0.0647
     16 H           1.6278   -0.3236   -1.5834 H       1  UNL1        0.0671
     17 H           0.7059   -2.4354   -0.8455 H       1  UNL1        0.0935
     18 H          -2.6545    0.6350   -1.3832 H       1  UNL1        0.0584
     19 H          -3.0048    1.2962    0.2315 H       1  UNL1        0.0584
     20 H           0.0018    3.1142    0.4084 H       1  UNL1        0.2100
     21 H           1.9628    2.6422    0.2273 H       1  UNL1        0.2100
     22 H           2.7869   -1.1193    0.8883 H       1  UNL1        0.2101
     23 H           0.7708   -1.2937    1.7096 H       1  UNL1        0.2126
     24 H          -3.0730   -1.4410   -0.5325 H       1  UNL1        0.2095
@<TRIPOS>BOND
     1     1     9    1
     2     1    11    1
     3     2     7    1
     4     2    20    1
     5     3     8    1
     6     3    21    1
     7     4    10    1
     8     4    22    1
     9     5    11    1
    10     5    23    1
    11     6    12    1
    12     6    24    1
    13     7     8    1
    14     7     9    1
    15     7    13    1
    16     8    10    1
    17     8    14    1
    18     9    12    1
    19     9    15    1
    20    10    11    1
    21    10    16    1
    22    11    17    1
    23    12    18    1
    24    12    19    1
