@<TRIPOS>MOLECULE
beta_d_glucopyranose
 24 24 0 0 0
SMALL
GASTEIGER

@<TRIPOS>ATOM
      1 O          -0.6679    1.1587    0.2570 O.3     1  UNL1       -0.3407
      2 O          -0.8870   -2.4483   -0.3388 O.3     1  UNL1       -0.3865
      3 O           1.8623   -2.0693    0.4696 O.3     1  UNL1       -0.3864
      4 O           2.8609    0.5414   -0.4619 O.3     1  UNL1       -0.3841
      5 O           1.1222    2.6552    0.2574 O.3     1  UNL1       -0.3649
      6 O          -3.3742    0.9717   -0.1865 O.3     1  UNL1       -0.3924
      7 C          -0.3727   -1.2470    0.2300 C.3     1  UNL1        0.1119
      8 C           1.0856   -1.0709   -0.1940 C.3     1  UNL1        0.1141
      9 C          -1.2211   -0.0621   -0.2375 C.3     1  UNL1        0.1130
     10 C           1.6082    0.3151    0.1839 C.3     1  UNL1        0.1339
     11 C           0.6388    1.4132   -0.2534 C.3     1  UNL1        0.1854
     12 C          -2.6550   -0.1577    0.2740 C.3     1  UNL1        0.0730
     13 H          -0.4248   -1.3522    1.3206 H       1  UNL1        0.0647
     14 H           1.2066   -1.2487   -1.2697 H       1  UNL1        0.0648
     15 H          -1.2548   -0.0098   -1.3343 H       1  UNL1        0.0647
     16 H           1.7952    0.3598    1.2636 H       1  UNL1        0.0671
     17 H           0.5967    1.5141   -1.3440 H       1  UNL1        0.0935
     18 H          -2.6916   -0.1535    1.3685 H       1  UNL1        0.0584
     19 H          -3.1564   -1.0581   -0.0922 H       1  UNL1        0.0584
     20 H          -0.8514   -2.3615   -1.3066 H       1  UNL1        0.2100
     21 H           1.4973   -2.9356    0.2200 H       1  UNL1        0.2100
     22 H           2.7165    0.4989   -1.4227 H       1  UNL1        0.2101
     23 H           1.4876    2.5033    1.1448 H       1  UNL1        0.2126
     24 H          -2.9192    1.7652    0.1440 H       1  UNL1        0.2095
@<TRIPOS>BOND
     1     1     9    1
     2     1    11    1
     3     2     7    1
     4     2    20    1
     5     3     8    1
     6     3    21    1
     7     4    10    1
     8     4    22    1
     9     5    11    1
    10     5    23    1
    11     6    12    1
    12     6    24    1
    13     7     8    1
    14     7     9    1
    15     7    13    1
    16     8    10    1
    17     8    14    1
    18     9    12    1
    19     9    15    1
    20    10    11    1
    21    10    16    1
    22    11    17    1
    23    12    18    1
    24    12    19    1
