@<TRIPOS>MOLECULE
beta_d_fructopyranose
 24 24 0 0 0
SMALL
GASTEIGER

@<TRIPOS>ATOM
      1 O           0.6618    1.3230   -0.0993 O.3     1  UNL1       -0.3421
      2 O           0.0905   -2.3090   -0.1069 O.3     1  UNL1       -0.3837
      3 O           1.3199   -0.3534    1.4360 O.3     1  UNL1       -0.3609
      4 O          -2.6062   -1.2361   -0.0845 O.3     1  UNL1       -0.3864
      5 O          -2.0587    1.2720   -1.0690 O.3     1  UNL1       -0.3869
      6 O           3.2708    0.4758   -0.3702 O.3     1  UNL1       -0.3896
      7 C          -0.2099   -0.9371   -0.3514 C.3     1  UNL1        0.1392
      8 C           0.9863   -0.0636    0.0748 C.3     1  UNL1        0.2201
      9 C          -1.4718   -0.5351    0.4176 C.3     1  UNL1        0.1141
     10 C          -1.7212    0.9670    0.2864 C.3     1  UNL1        0.1070
     11 C          -0.4712    1.7540    0.6620 C.3     1  UNL1        0.0795
     12 C           2.2098   -0.3575   -0.7956 C.3     1  UNL1        0.1006
     13 H          -0.4002   -0.8301   -1.4272 H       1  UNL1        0.0675
     14 H          -1.3729   -0.8117    1.4736 H       1  UNL1        0.0648
     15 H          -2.5694    1.2770    0.9065 H       1  UNL1        0.0643
     16 H          -0.6141    2.8159    0.4361 H       1  UNL1        0.0587
     17 H          -0.2485    1.6651    1.7310 H       1  UNL1        0.0587
     18 H           2.0165   -0.1492   -1.8528 H       1  UNL1        0.0612
     19 H           2.5517   -1.3906   -0.6875 H       1  UNL1        0.0612
     20 H           0.7358   -2.5963   -0.7743 H       1  UNL1        0.2101
     21 H           2.2555   -0.1275    1.5717 H       1  UNL1        0.2129
     22 H          -2.6215   -1.1375   -1.0513 H       1  UNL1        0.2100
     23 H          -2.9294    0.8786   -1.2485 H       1  UNL1        0.2100
     24 H           2.9749    1.3979   -0.4593 H       1  UNL1        0.2096
@<TRIPOS>BOND
     1     1     8    1
     2     1    11    1
     3     2     7    1
     4     2    20    1
     5     3     8    1
     6     3    21    1
     7     4     9    1
     8     4    22    1
     9     5    10    1
    10     5    23    1
    11     6    12    1
    12     6    24    1
    13     7     8    1
    14     7     9    1
    15     7    13    1
    16     8    12    1
    17     9    10    1
    18     9    14    1
    19    10    11    1
    20    10    15    1
    21    11    16    1
    22    11    17    1
    23    12    18    1
    24    12    19    1
