@<TRIPOS>MOLECULE
beta_d_galactopyranose
 24 24 0 0 0
SMALL
GASTEIGER

@<TRIPOS>ATOM
      1 O           0.8173    0.9667   -0.2366 O.3     1  UNL1       -0.3407
      2 O           0.3542   -1.6649   -1.2463 O.3     1  UNL1       -0.3865
      3 O          -2.0580   -1.9912    0.0968 O.3     1  UNL1       -0.3864
      4 O          -2.7815    0.7905    0.4197 O.3     1  UNL1       -0.3841
      5 O          -0.8271    2.5840   -0.5964 O.3     1  UNL1       -0.3649
      6 O           3.4744    0.6143    0.3595 O.3     1  UNL1       -0.3924
      7 C           0.2831   -1.3703    0.1503 C.3     1  UNL1        0.1119
      8 C          -1.1482   -0.9793    0.5197 C.3     1  UNL1        0.1141
      9 C           1.2348   -0.2110    0.4651 C.3     1  UNL1        0.1130
     10 C          -1.5386    0.3496   -0.1266 C.3     1  UNL1        0.1339
     11 C          -0.4795    1.4188    0.1511 C.3     1  UNL1        0.1854
     12 C           2.6692   -0.5074    0.0437 C.3     1  UNL1        0.0730
     13 H           0.5755   -2.2817    0.6823 H       1  UNL1        0.0647
     14 H          -1.2392   -0.9039    1.6105 H       1  UNL1        0.0648
     15 H           1.2226    0.0165    1.5391 H       1  UNL1        0.0647
     16 H          -1.6969    0.2205   -1.2041 H       1  UNL1        0.0671
     17 H          -0.4761    1.6989    1.2121 H       1  UNL1        0.0935
     18 H           2.7543   -0.6761   -1.0345 H       1  UNL1        0.0584
     19 H           3.0648   -1.3811    0.5697 H       1  UNL1        0.0584
     20 H           0.2458   -0.8344   -1.7397 H       1  UNL1        0.2100
     21 H          -2.9537   -1.6951    0.3332 H       1  UNL1        0.2100
     22 H          -2.9932    1.6458    0.0080 H       1  UNL1        0.2101
     23 H          -0.4254    3.3442   -0.1425 H       1  UNL1        0.2126
     24 H           3.1069    1.3820   -0.1109 H       1  UNL1        0.2095
@<TRIPOS>BOND
     1     1     9    1
     2     1    11    1
     3     2     7    1
     4     2    20    1
     5     3     8    1
     6     3    21    1
     7     4    10    1
     8     4    22    1
     9     5    11    1
    10     5    23    1
    11     6    12    1
    12     6    24    1
    13     7     8    1
    14     7     9    1
    15     7    13    1
    16     8    10    1
    17     8    14    1
    18     9    12    1
    19     9    15    1
    20    10    11    1
    21    10    16    1
    22    11    17    1
    23    12    18    1
    24    12    19    1
