@<TRIPOS>MOLECULE
beta_d_fructofuranose
 24 24 0 0 0
SMALL
GASTEIGER

@<TRIPOS>ATOM
      1 O           0.0969   -0.9850   -0.3283 O.3     1  UNL1       -0.3364
      2 O          -1.2848    2.2653    0.3963 O.3     1  UNL1       -0.3837
      3 O          -1.2261   -0.2491    1.4663 O.3     1  UNL1       -0.3608
      4 O           1.6570    2.2105   -0.5584 O.3     1  UNL1       -0.3864
      5 O          -2.5981   -1.8995   -0.3035 O.3     1  UNL1       -0.3896
      6 O           2.6501   -2.1076   -0.0018 O.3     1  UNL1       -0.3924
      7 C          -0.5623    1.2641   -0.2921 C.3     1  UNL1        0.1392
      8 C          -1.0114   -0.1511    0.0574 C.3     1  UNL1        0.2205
      9 C           0.8972    1.2190    0.1073 C.3     1  UNL1        0.1144
     10 C           1.2908   -0.1764   -0.3638 C.3     1  UNL1        0.1134
     11 C          -2.2691   -0.5747   -0.6849 C.3     1  UNL1        0.1006
     12 C           2.3597   -0.8156    0.5056 C.3     1  UNL1        0.0730
     13 H          -0.6553    1.4558   -1.3688 H       1  UNL1        0.0675
     14 H           1.0326    1.3617    1.1848 H       1  UNL1        0.0648
     15 H           1.6312   -0.1721   -1.4067 H       1  UNL1        0.0647
     16 H          -2.1268   -0.5598   -1.7701 H       1  UNL1        0.0612
     17 H          -3.1181    0.0639   -0.4237 H       1  UNL1        0.0612
     18 H           2.0191   -0.9341    1.5395 H       1  UNL1        0.0584
     19 H           3.2806   -0.2254    0.5018 H       1  UNL1        0.0584
     20 H          -0.8553    3.1168    0.2064 H       1  UNL1        0.2101
     21 H          -0.7956    0.4955    1.9159 H       1  UNL1        0.2129
     22 H           1.5268    2.1065   -1.5162 H       1  UNL1        0.2100
     23 H          -1.8389   -2.4656   -0.5252 H       1  UNL1        0.2096
     24 H           1.8220   -2.6173    0.0024 H       1  UNL1        0.2095
@<TRIPOS>BOND
     1     1     8    1
     2     1    10    1
     3     2     7    1
     4     2    20    1
     5     3     8    1
     6     3    21    1
     7     4     9    1
     8     4    22    1
     9     5    11    1
    10     5    23    1
    11     6    12    1
    12     6    24    1
    13     7     8    1
    14     7     9    1
    15     7    13    1
    16     8    11    1
    17     9    10    1
    18     9    14    1
    19    10    12    1
    20    10    15    1
    21    11    16    1
    22    11    17    1
    23    12    18    1
    24    12    19    1
