@<TRIPOS>MOLECULE
beta_d_mannopyranose
 24 24 0 0 0
SMALL
GASTEIGER

@<TRIPOS>ATOM
      1 O          -0.6720    1.1275    0.0821 O.3     1  UNL1       -0.3407
      2 O          -0.5977   -2.5239   -0.3175 O.3     1  UNL1       -0.3865
      3 O           2.1894   -1.8646    0.0632 O.3     1  UNL1       -0.3864
      4 O           1.8601    0.6420    1.2415 O.3     1  UNL1       -0.3841
      5 O           0.9544    2.7787   -0.2883 O.3     1  UNL1       -0.3649
      6 O          -3.3713    0.6627    0.0689 O.3     1  UNL1       -0.3924
      7 C          -0.1413   -1.2570    0.1494 C.3     1  UNL1        0.1119
      8 C           1.2285   -0.9535   -0.4632 C.3     1  UNL1        0.1141
      9 C          -1.1578   -0.1778   -0.2485 C.3     1  UNL1        0.1130
     10 C           1.6509    0.4849   -0.1654 C.3     1  UNL1        0.1339
     11 C           0.5454    1.4491   -0.5945 C.3     1  UNL1        0.1854
     12 C          -2.4886   -0.3682    0.4723 C.3     1  UNL1        0.0730
     13 H          -0.0540   -1.3301    1.2398 H       1  UNL1        0.0647
     14 H           1.1998   -1.1108   -1.5485 H       1  UNL1        0.0648
     15 H          -1.3525   -0.2053   -1.3294 H       1  UNL1        0.0647
     16 H           2.6045    0.7233   -0.6477 H       1  UNL1        0.0671
     17 H           0.3772    1.4031   -1.6764 H       1  UNL1        0.0935
     18 H          -2.3688   -0.2991    1.5586 H       1  UNL1        0.0584
     19 H          -2.9468   -1.3311    0.2287 H       1  UNL1        0.0584
     20 H          -0.6813   -2.4755   -1.2851 H       1  UNL1        0.2100
     21 H           1.8735   -2.7641   -0.1289 H       1  UNL1        0.2100
     22 H           0.9954    0.6176    1.6847 H       1  UNL1        0.2101
     23 H           1.4613    2.7562    0.5408 H       1  UNL1        0.2126
     24 H          -2.9527    1.5121    0.2905 H       1  UNL1        0.2095
@<TRIPOS>BOND
     1     1     9    1
     2     1    11    1
     3     2     7    1
     4     2    20    1
     5     3     8    1
     6     3    21    1
     7     4    10    1
     8     4    22    1
     9     5    11    1
    10     5    23    1
    11     6    12    1
    12     6    24    1
    13     7     8    1
    14     7     9    1
    15     7    13    1
    16     8    10    1
    17     8    14    1
    18     9    12    1
    19     9    15    1
    20    10    11    1
    21    10    16    1
    22    11    17    1
    23    12    18    1
    24    12    19    1
