@<TRIPOS>MOLECULE
beta_d_ribofuranose
 20 20 0 0 0
SMALL
GASTEIGER

@<TRIPOS>ATOM
      1 O           0.3618   -1.0644   -0.5652 O.3     1  UNL1       -0.3407
      2 O          -0.3694    2.2620    0.5617 O.3     1  UNL1       -0.3864
      3 O          -1.9163    0.8003   -1.1734 O.3     1  UNL1       -0.3841
      4 O          -1.1610   -2.0048    0.9625 O.3     1  UNL1       -0.3649
      5 O           3.0811   -0.3229   -0.4529 O.3     1  UNL1       -0.3924
      6 C          -0.3233    0.8527    0.6308 C.3     1  UNL1        0.1141
      7 C           0.7773    0.2749   -0.2439 C.3     1  UNL1        0.1131
      8 C          -1.5552    0.1816    0.0575 C.3     1  UNL1        0.1339
      9 C          -1.0281   -1.2194   -0.2162 C.3     1  UNL1        0.1854
     10 C           2.1330    0.2402    0.4392 C.3     1  UNL1        0.0730
     11 H          -0.1947    0.5521    1.6781 H       1  UNL1        0.0648
     12 H           0.8733    0.8216   -1.1904 H       1  UNL1        0.0647
     13 H          -2.4146    0.2216    0.7322 H       1  UNL1        0.0671
     14 H          -1.5506   -1.7124   -1.0426 H       1  UNL1        0.0935
     15 H           2.1138   -0.3830    1.3393 H       1  UNL1        0.0584
     16 H           2.4695    1.2444    0.7118 H       1  UNL1        0.0584
     17 H           0.4816    2.6013    0.8869 H       1  UNL1        0.2100
     18 H          -1.2331    0.6103   -1.8376 H       1  UNL1        0.2101
     19 H          -1.1440   -2.9371    0.6872 H       1  UNL1        0.2126
     20 H           2.7680   -1.2125   -0.6903 H       1  UNL1        0.2095
@<TRIPOS>BOND
     1     1     7    1
     2     1     9    1
     3     2     6    1
     4     2    17    1
     5     3     8    1
     6     3    18    1
     7     4     9    1
     8     4    19    1
     9     5    10    1
    10     5    20    1
    11     6     7    1
    12     6     8    1
    13     6    11    1
    14     7    10    1
    15     7    12    1
    16     8     9    1
    17     8    13    1
    18     9    14    1
    19    10    15    1
    20    10    16    1
