@<TRIPOS>MOLECULE
d_erythrose
 16 15 0 0 0
SMALL
GASTEIGER

@<TRIPOS>ATOM
      1 O          -0.6659   -0.7362   -1.2277 O.3     1  UNL1       -0.3865
      2 O           1.5267   -1.4036    0.3465 O.3     1  UNL1       -0.3819
      3 O          -2.9289    0.3581   -0.0674 O.3     1  UNL1       -0.3924
      4 O           2.3598    0.9778   -0.5566 O.2     1  UNL1       -0.2982
      5 C          -0.7110   -0.5180    0.1849 C.3     1  UNL1        0.1106
      6 C           0.7135   -0.2936    0.6963 C.3     1  UNL1        0.1378
      7 C          -1.6466    0.6501    0.4801 C.3     1  UNL1        0.0730
      8 C           1.3523    0.9654    0.1440 C.2     1  UNL1        0.1512
      9 H          -1.1234   -1.4389    0.6140 H       1  UNL1        0.0646
     10 H           0.7064   -0.2078    1.7886 H       1  UNL1        0.0697
     11 H          -1.3140    1.5790    0.0086 H       1  UNL1        0.0584
     12 H          -1.7546    0.8138    1.5560 H       1  UNL1        0.0584
     13 H           0.8761    1.9145    0.4418 H       1  UNL1        0.1055
     14 H          -0.0645   -1.4836   -1.3879 H       1  UNL1        0.2100
     15 H           2.3822   -1.2934    0.7956 H       1  UNL1        0.2105
     16 H          -2.8117    0.2086   -1.0212 H       1  UNL1        0.2095
@<TRIPOS>BOND
     1     1     5    1
     2     1    14    1
     3     2     6    1
     4     2    15    1
     5     3     7    1
     6     3    16    1
     7     4     8    2
     8     5     6    1
     9     5     7    1
    10     5     9    1
    11     6     8    1
    12     6    10    1
    13     7    11    1
    14     7    12    1
    15     8    13    1
