@<TRIPOS>MOLECULE
d_glucose_open_chain
 24 23 0 0 0
SMALL
GASTEIGER

@<TRIPOS>ATOM
      1 O          -0.0176   -1.3519    0.3189 O.3     1  UNL1       -0.3865
      2 O          -0.4388    1.2088    1.5932 O.3     1  UNL1       -0.3861
      3 O           2.2500    1.3308   -0.6092 O.3     1  UNL1       -0.3869
      4 O          -2.3144    0.6445   -1.4872 O.3     1  UNL1       -0.3819
      5 O           4.0906   -0.6031    0.0767 O.3     1  UNL1       -0.3924
      6 O          -3.0659   -1.5079   -0.1142 O.2     1  UNL1       -0.2982
      7 C           0.3471   -0.0924   -0.2555 C.3     1  UNL1        0.1118
      8 C          -0.6452    0.9954    0.1914 C.3     1  UNL1        0.1159
      9 C           1.8171    0.1651    0.1072 C.3     1  UNL1        0.1065
     10 C          -2.1330    0.7333   -0.0781 C.3     1  UNL1        0.1381
     11 C           2.7599   -0.9702   -0.2772 C.3     1  UNL1        0.0727
     12 C          -2.6498   -0.5525    0.5339 C.2     1  UNL1        0.1512
     13 H           0.2588   -0.2053   -1.3428 H       1  UNL1        0.0647
     14 H          -0.3684    1.9299   -0.3117 H       1  UNL1        0.0650
     15 H           1.9339    0.3780    1.1755 H       1  UNL1        0.0643
     16 H          -2.7434    1.5554    0.3115 H       1  UNL1        0.0697
     17 H           2.7491   -1.1463   -1.3574 H       1  UNL1        0.0584
     18 H           2.5135   -1.9050    0.2347 H       1  UNL1        0.0584
     19 H           0.1537   -1.3078    1.2748 H       1  UNL1        0.2100
     20 H          -0.6653    0.3906    2.0648 H       1  UNL1        0.2100
     21 H          -2.6519   -0.5851    1.6369 H       1  UNL1        0.1055
     22 H           2.1591    1.1487   -1.5602 H       1  UNL1        0.2100
     23 H          -3.2715    0.6141   -1.6571 H       1  UNL1        0.2105
     24 H           4.1126   -0.4767    1.0406 H       1  UNL1        0.2095
@<TRIPOS>BOND
     1     1     7    1
     2     1    19    1
     3     2     8    1
     4     2    20    1
     5     3     9    1
     6     3    22    1
     7     4    10    1
     8     4    23    1
     9     5    11    1
    10     5    24    1
    11     6    12    2
    12     7     8    1
    13     7     9    1
    14     7    13    1
    15     8    10    1
    16     8    14    1
    17     9    11    1
    18     9    15    1
    19    10    12    1
    20    10    16    1
    21    11    17    1
    22    11    18    1
    23    12    21    1
