@<TRIPOS>MOLECULE
d_glyceraldehyde
 12 11 0 0 0
SMALL
GASTEIGER

@<TRIPOS>ATOM
      1 O           0.0701    1.4173    0.5693 O.3     1  UNL1       -0.3823
      2 O          -1.5483   -0.8637    0.6519 O.3     1  UNL1       -0.3920
      3 O           1.8821   -0.5587    0.3869 O.2     1  UNL1       -0.2982
      4 C          -0.0453    0.5723   -0.5601 C.3     1  UNL1        0.1328
      5 C          -1.4108   -0.0964   -0.5354 C.3     1  UNL1        0.0768
      6 C           1.0522   -0.4707   -0.5126 C.2     1  UNL1        0.1508
      7 H           0.0751    1.1704   -1.4686 H       1  UNL1        0.0693
      8 H          -1.5412   -0.7670   -1.3902 H       1  UNL1        0.0587
      9 H          -2.2125    0.6489   -0.5458 H       1  UNL1        0.0587
     10 H           1.0784   -1.1664   -1.3693 H       1  UNL1        0.1054
     11 H           0.9077    1.9044    0.4866 H       1  UNL1        0.2104
     12 H          -1.4239   -0.2613    1.4052 H       1  UNL1        0.2095
@<TRIPOS>BOND
     1     1     4    1
     2     1    11    1
     3     2     5    1
     4     2    12    1
     5     3     6    2
     6     4     5    1
     7     4     6    1
     8     4     7    1
     9     5     8    1
    10     5     9    1
    11     6    10    1
