@<TRIPOS>MOLECULE
d_ribulose
 20 19 0 0 0
SMALL
GASTEIGER

@<TRIPOS>ATOM
      1 O          -2.3522   -0.4966    1.0610 O.3     1  UNL1       -0.3865
      2 O          -0.4536   -1.9676   -0.4457 O.3     1  UNL1       -0.3815
      3 O          -2.5270    1.6975   -0.6312 O.3     1  UNL1       -0.3924
      4 O           1.7707   -0.6962   -1.1273 O.2     1  UNL1       -0.2921
      5 O           3.1118    1.1796    0.2206 O.3     1  UNL1       -0.3874
      6 C          -1.1629    0.1120    0.5506 C.3     1  UNL1        0.1109
      7 C          -0.0484   -0.9344    0.4405 C.3     1  UNL1        0.1431
      8 C          -1.5093    0.7171   -0.8085 C.3     1  UNL1        0.0730
      9 C           1.2656   -0.3408   -0.0620 C.2     1  UNL1        0.1892
     10 C           1.9052    0.7294    0.8020 C.3     1  UNL1        0.1049
     11 H          -0.8913    0.9034    1.2571 H       1  UNL1        0.0646
     12 H           0.1269   -1.3996    1.4169 H       1  UNL1        0.0701
     13 H          -0.6446    1.2048   -1.2675 H       1  UNL1        0.0584
     14 H          -1.9058   -0.0399   -1.4930 H       1  UNL1        0.0584
     15 H           1.2364    1.5884    0.8822 H       1  UNL1        0.0637
     16 H           2.1136    0.3262    1.7966 H       1  UNL1        0.0637
     17 H          -3.0348    0.1943    1.1120 H       1  UNL1        0.2100
     18 H           0.2182   -2.6696   -0.4036 H       1  UNL1        0.2105
     19 H          -2.7271    2.0626   -1.5100 H       1  UNL1        0.2095
     20 H           3.7361    0.4340    0.2286 H       1  UNL1        0.2100
@<TRIPOS>BOND
     1     1     6    1
     2     1    17    1
     3     2     7    1
     4     2    18    1
     5     3     8    1
     6     3    19    1
     7     4     9    2
     8     5    10    1
     9     5    20    1
    10     6     7    1
    11     6     8    1
    12     6    11    1
    13     7     9    1
    14     7    12    1
    15     8    13    1
    16     8    14    1
    17     9    10    1
    18    10    15    1
    19    10    16    1
