@<TRIPOS>MOLECULE
d_sedoheptulose
 28 27 0 0 0
SMALL
GASTEIGER

@<TRIPOS>ATOM
      1 O          -1.3952   -1.1083   -1.5054 O.3     1  UNL1       -0.3865
      2 O           0.1914    0.1638    1.5460 O.3     1  UNL1       -0.3861
      3 O          -3.6714   -0.8862    0.0098 O.3     1  UNL1       -0.3869
      4 O           1.4006   -2.0936    0.2737 O.3     1  UNL1       -0.3815
      5 O          -3.9924    1.8547    0.2691 O.3     1  UNL1       -0.3924
      6 O           3.4473   -0.5394    0.6763 O.2     1  UNL1       -0.2921
      7 O           3.9766    1.8725   -0.3196 O.3     1  UNL1       -0.3874
      8 C          -1.2875   -0.8203   -0.1110 C.3     1  UNL1        0.1118
      9 C           0.0381   -0.0736    0.1491 C.3     1  UNL1        0.1162
     10 C          -2.5447   -0.0738    0.3751 C.3     1  UNL1        0.1065
     11 C           1.2822   -0.8249   -0.3577 C.3     1  UNL1        0.1434
     12 C          -2.7738    1.3097   -0.2338 C.3     1  UNL1        0.0727
     13 C           2.5762   -0.0675   -0.0561 C.2     1  UNL1        0.1892
     14 C           2.7526    1.2868   -0.7155 C.3     1  UNL1        0.1049
     15 H          -1.2757   -1.7886    0.4066 H       1  UNL1        0.0647
     16 H           0.0002    0.8995   -0.3495 H       1  UNL1        0.0650
     17 H          -2.5402   -0.0035    1.4691 H       1  UNL1        0.0643
     18 H           1.2434   -0.9912   -1.4386 H       1  UNL1        0.0701
     19 H          -2.8539    1.2651   -1.3248 H       1  UNL1        0.0584
     20 H          -1.9696    2.0002    0.0328 H       1  UNL1        0.0584
     21 H          -0.7705   -1.8241   -1.7103 H       1  UNL1        0.2100
     22 H           0.0572   -0.6779    2.0131 H       1  UNL1        0.2100
     23 H          -4.4427   -0.5524    0.4984 H       1  UNL1        0.2100
     24 H           1.4393   -1.9522    1.2345 H       1  UNL1        0.2105
     25 H           1.9437    1.9629   -0.4319 H       1  UNL1        0.0637
     26 H           2.7638    1.1558   -1.8006 H       1  UNL1        0.0637
     27 H          -4.7237    1.3537   -0.1297 H       1  UNL1        0.2095
     28 H           3.9187    2.0547    0.6339 H       1  UNL1        0.2100
@<TRIPOS>BOND
     1     1     8    1
     2     1    21    1
     3     2     9    1
     4     2    22    1
     5     3    10    1
     6     3    23    1
     7     4    11    1
     8     4    24    1
     9     5    12    1
    10     5    27    1
    11     6    13    2
    12     7    14    1
    13     7    28    1
    14     8     9    1
    15     8    10    1
    16     8    15    1
    17     9    11    1
    18     9    16    1
    19    10    12    1
    20    10    17    1
    21    11    13    1
    22    11    18    1
    23    12    19    1
    24    12    20    1
    25    13    14    1
    26    14    25    1
    27    14    26    1
