@<TRIPOS>MOLECULE
d_xylose
 20 20 0 0 0
SMALL
GASTEIGER

@<TRIPOS>ATOM
      1 O           0.6887   -1.6397   -0.2650 O.3     1  UNL1       -0.3462
      2 O          -1.3483    1.9236   -0.4842 O.3     1  UNL1       -0.3864
      3 O           1.3748    1.8840    0.4753 O.3     1  UNL1       -0.3841
      4 O          -2.7477   -0.5516    0.2966 O.3     1  UNL1       -0.3869
      5 O           2.7375   -0.5199   -0.2352 O.3     1  UNL1       -0.3649
      6 C          -0.7489    0.8110    0.1810 C.3     1  UNL1        0.1137
      7 C           0.7367    0.7869   -0.1778 C.3     1  UNL1        0.1339
      8 C          -1.4397   -0.4791   -0.2592 C.3     1  UNL1        0.1069
      9 C           1.3994   -0.5201    0.2603 C.3     1  UNL1        0.1850
     10 C          -0.6525   -1.6952    0.2082 C.3     1  UNL1        0.0792
     11 H          -0.8932    0.9760    1.2559 H       1  UNL1        0.0647
     12 H           0.8550    0.9450   -1.2574 H       1  UNL1        0.0671
     13 H          -1.5380   -0.4932   -1.3515 H       1  UNL1        0.0643
     14 H           1.4638   -0.5979    1.3517 H       1  UNL1        0.0935
     15 H          -0.6612   -1.7872    1.3018 H       1  UNL1        0.0587
     16 H          -1.1142   -2.6099   -0.1798 H       1  UNL1        0.0587
     17 H          -0.8783    2.7240   -0.1939 H       1  UNL1        0.2100
     18 H           2.3202    1.8461    0.2508 H       1  UNL1        0.2101
     19 H          -3.2269    0.2472    0.0171 H       1  UNL1        0.2100
     20 H           2.7378   -0.1279   -1.1243 H       1  UNL1        0.2126
@<TRIPOS>BOND
     1     1     9    1
     2     1    10    1
     3     2     6    1
     4     2    17    1
     5     3     7    1
     6     3    18    1
     7     4     8    1
     8     4    19    1
     9     5     9    1
    10     5    20    1
    11     6     7    1
    12     6     8    1
    13     6    11    1
    14     7     9    1
    15     7    12    1
    16     8    10    1
    17     8    13    1
    18     9    14    1
    19    10    15    1
    20    10    16    1
