@<TRIPOS>MOLECULE
dihydroxyacetone
 12 11 0 0 0
SMALL
GASTEIGER

@<TRIPOS>ATOM
      1 O          -2.4087    0.0956   -0.0031 O.3     1  UNL1       -0.3874
      2 O           2.4087    0.0955    0.0027 O.3     1  UNL1       -0.3874
      3 O           0.0000    1.2771    0.0003 O.2     1  UNL1       -0.2925
      4 C           0.0000    0.0470   -0.0002 C.2     1  UNL1        0.1835
      5 C          -1.2837   -0.7576    0.0057 C.3     1  UNL1        0.1046
      6 C           1.2837   -0.7575   -0.0053 C.3     1  UNL1        0.1046
      7 H          -1.3178   -1.3664    0.9131 H       1  UNL1        0.0637
      8 H          -1.3182   -1.4051   -0.8749 H       1  UNL1        0.0637
      9 H           1.3178   -1.3671   -0.9121 H       1  UNL1        0.0637
     10 H           1.3182   -1.4040    0.8759 H       1  UNL1        0.0637
     11 H          -2.4082    0.5715   -0.8512 H       1  UNL1        0.2100
     12 H           2.4082    0.5723    0.8503 H       1  UNL1        0.2100
@<TRIPOS>BOND
     1     1     5    1
     2     1    11    1
     3     2     6    1
     4     2    12    1
     5     3     4    2
     6     4     5    1
     7     4     6    1
     8     5     7    1
     9     5     8    1
    10     6     9    1
    11     6    10    1
