@<TRIPOS>MOLECULE
galactosamine
 25 25 0 0 0
SMALL
GASTEIGER

@<TRIPOS>ATOM
      1 O           0.8199    0.9662   -0.2337 O.3     1  UNL1       -0.3417
      2 O          -2.0444   -2.0059    0.1050 O.3     1  UNL1       -0.3874
      3 O           0.3558   -1.6616   -1.2482 O.3     1  UNL1       -0.3865
      4 O          -0.8072    2.5962   -0.5814 O.3     1  UNL1       -0.3656
      5 O           3.4786    0.6136    0.3574 O.3     1  UNL1       -0.3924
      6 N          -2.8402    0.7876    0.3892 N.3     1  UNL1       -0.3211
      7 C          -1.1463   -0.9817    0.5239 C.3     1  UNL1        0.1033
      8 C           0.2871   -1.3697    0.1490 C.3     1  UNL1        0.1109
      9 C          -1.5391    0.3511   -0.1262 C.3     1  UNL1        0.0851
     10 C           1.2390   -0.2118    0.4651 C.3     1  UNL1        0.1129
     11 C          -0.4760    1.4230    0.1599 C.3     1  UNL1        0.1744
     12 C           2.6728   -0.5071    0.0399 C.3     1  UNL1        0.0730
     13 H          -1.2122   -0.9065    1.6174 H       1  UNL1        0.0637
     14 H           0.5813   -2.2822    0.6783 H       1  UNL1        0.0646
     15 H          -1.6512    0.2192   -1.2099 H       1  UNL1        0.0535
     16 H           1.2293    0.0131    1.5397 H       1  UNL1        0.0647
     17 H          -0.4560    1.6871    1.2253 H       1  UNL1        0.0925
     18 H           2.7456   -0.6637   -1.0411 H       1  UNL1        0.0584
     19 H           3.0642   -1.3866    0.5604 H       1  UNL1        0.0584
     20 H          -3.5644    0.1325    0.0988 H       1  UNL1        0.1187
     21 H          -3.0862    1.6856   -0.0260 H       1  UNL1        0.1187
     22 H          -2.9240   -1.7871    0.4556 H       1  UNL1        0.2100
     23 H           0.2602   -0.8288   -1.7400 H       1  UNL1        0.2100
     24 H          -0.4026    3.3493   -0.1185 H       1  UNL1        0.2125
     25 H           4.3868    0.4014    0.0823 H       1  UNL1        0.2095
@<TRIPOS>BOND
     1     1    10    1
     2     1    11    1
     3     2     7    1
     4     2    22    1
     5     3     8    1
     6     3    23    1
     7     4    11    1
     8     4    24    1
     9     5    12    1
    10     5    25    1
    11     6     9    1
    12     6    20    1
    13     6    21    1
    14     7     8    1
    15     7     9    1
    16     7    13    1
    17     8    10    1
    18     8    14    1
    19     9    11    1
    20     9    15    1
    21    10    12    1
    22    10    16    1
    23    11    17    1
    24    12    18    1
    25    12    19    1
