@<TRIPOS>MOLECULE
glucuronic_acid
 23 23 0 0 0
SMALL
GASTEIGER

@<TRIPOS>ATOM
      1 O           0.1982   -1.3365    0.0089 O.3     1  UNL1       -0.3317
      2 O          -1.6025    2.2881    0.7104 O.3     1  UNL1       -0.3864
      3 O           1.0843    2.1892   -0.3939 O.3     1  UNL1       -0.3860
      4 O          -3.1815    0.0151   -0.2967 O.3     1  UNL1       -0.3841
      5 O          -1.8504   -2.4515    0.0623 O.3     1  UNL1       -0.3649
      6 O           3.1769    0.4880   -0.3454 O.3     1  UNL1       -0.4788
      7 O           2.6480   -1.4571    0.7191 O.2     1  UNL1       -0.2480
      8 C          -1.1021    1.2233   -0.0995 C.3     1  UNL1        0.1145
      9 C           0.3944    1.0799    0.1796 C.3     1  UNL1        0.1201
     10 C          -1.8565   -0.0656    0.2283 C.3     1  UNL1        0.1340
     11 C           0.9377   -0.2043   -0.4343 C.3     1  UNL1        0.1859
     12 C          -1.1688   -1.2825   -0.3912 C.3     1  UNL1        0.1860
     13 C           2.3223   -0.4861    0.0523 C.2     1  UNL1        0.3367
     14 H          -1.2842    1.5150   -1.1413 H       1  UNL1        0.0648
     15 H           0.5763    1.1089    1.2610 H       1  UNL1        0.0652
     16 H          -1.9471   -0.1799    1.3157 H       1  UNL1        0.0671
     17 H           0.9586   -0.1831   -1.5309 H       1  UNL1        0.0741
     18 H          -1.2373   -1.2776   -1.4852 H       1  UNL1        0.0936
     19 H          -1.0974    3.0879    0.4843 H       1  UNL1        0.2100
     20 H           0.9314    2.1756   -1.3541 H       1  UNL1        0.2100
     21 H          -3.5967    0.8079    0.0840 H       1  UNL1        0.2101
     22 H          -2.1082   -2.3191    0.9897 H       1  UNL1        0.2126
     23 H           4.0923    0.3221   -0.0340 H       1  UNL1        0.2951
@<TRIPOS>BOND
     1     1    11    1
     2     1    12    1
     3     2     8    1
     4     2    19    1
     5     3     9    1
     6     3    20    1
     7     4    10    1
     8     4    21    1
     9     5    12    1
    10     5    22    1
    11     6    13    1
    12     6    23    1
    13     7    13    2
    14     8     9    1
    15     8    10    1
    16     8    14    1
    17     9    11    1
    18     9    15    1
    19    10    12    1
    20    10    16    1
    21    11    13    1
    22    11    17    1
    23    12    18    1
