@<TRIPOS>MOLECULE
glucosamine
 25 25 0 0 0
SMALL
GASTEIGER

@<TRIPOS>ATOM
      1 O           0.6906    1.1468   -0.2533 O.3     1  UNL1       -0.3417
      2 O          -1.9016   -2.0393   -0.4485 O.3     1  UNL1       -0.3874
      3 O           0.8323   -2.4770    0.3336 O.3     1  UNL1       -0.3865
      4 O          -1.0619    2.6798   -0.2372 O.3     1  UNL1       -0.3656
      5 O           3.3901    0.9406    0.1868 O.3     1  UNL1       -0.3924
      6 N          -2.9116    0.5683    0.4176 N.3     1  UNL1       -0.3211
      7 C          -1.0908   -1.0580    0.2004 C.3     1  UNL1        0.1033
      8 C           0.3650   -1.2557   -0.2328 C.3     1  UNL1        0.1109
      9 C          -1.5960    0.3364   -0.1861 C.3     1  UNL1        0.0851
     10 C           1.2316   -0.0826    0.2354 C.3     1  UNL1        0.1129
     11 C          -0.6116    1.4224    0.2643 C.3     1  UNL1        0.1744
     12 C           2.6639   -0.1817   -0.2803 C.3     1  UNL1        0.0730
     13 H          -1.1824   -1.2306    1.2803 H       1  UNL1        0.0637
     14 H           0.4056   -1.3559   -1.3250 H       1  UNL1        0.0646
     15 H          -1.7249    0.3926   -1.2748 H       1  UNL1        0.0535
     16 H           1.2683   -0.0377    1.3323 H       1  UNL1        0.0647
     17 H          -0.5614    1.4894    1.3590 H       1  UNL1        0.0925
     18 H           2.6981   -0.1714   -1.3748 H       1  UNL1        0.0584
     19 H           3.1658   -1.0834    0.0804 H       1  UNL1        0.0584
     20 H          -2.8360    0.5339    1.4338 H       1  UNL1        0.1187
     21 H          -3.5431   -0.1883    0.1569 H       1  UNL1        0.1187
     22 H          -1.8279   -1.9049   -1.4087 H       1  UNL1        0.2100
     23 H           1.6804   -2.6944   -0.0880 H       1  UNL1        0.2100
     24 H          -0.6882    3.3670    0.3403 H       1  UNL1        0.2125
     25 H           2.9387    1.7388   -0.1372 H       1  UNL1        0.2095
@<TRIPOS>BOND
     1     1    10    1
     2     1    11    1
     3     2     7    1
     4     2    22    1
     5     3     8    1
     6     3    23    1
     7     4    11    1
     8     4    24    1
     9     5    12    1
    10     5    25    1
    11     6     9    1
    12     6    20    1
    13     6    21    1
    14     7     8    1
    15     7     9    1
    16     7    13    1
    17     8    10    1
    18     8    14    1
    19     9    11    1
    20     9    15    1
    21    10    12    1
    22    10    16    1
    23    11    17    1
    24    12    18    1
    25    12    19    1
