@<TRIPOS>MOLECULE
iduronic_acid
 23 23 0 0 0
SMALL
GASTEIGER

@<TRIPOS>ATOM
      1 O          -0.1869    1.1721   -0.4724 O.3     1  UNL1       -0.3317
      2 O           1.6243   -0.9389    1.7821 O.3     1  UNL1       -0.3864
      3 O          -0.4920   -1.6333   -1.1069 O.3     1  UNL1       -0.3860
      4 O           1.9811   -0.3604   -1.7804 O.3     1  UNL1       -0.3841
      5 O           1.4940    1.9018    1.0312 O.3     1  UNL1       -0.3649
      6 O          -2.9353   -0.5755    0.9105 O.3     1  UNL1       -0.4788
      7 O          -2.7621    0.9122   -0.8079 O.2     1  UNL1       -0.2480
      8 C           1.3254   -1.1295    0.4015 C.3     1  UNL1        0.1145
      9 C          -0.1956   -1.1688    0.2098 C.3     1  UNL1        0.1201
     10 C           1.9689    0.0088   -0.4026 C.3     1  UNL1        0.1340
     11 C          -0.7893    0.2263    0.4031 C.3     1  UNL1        0.1859
     12 C           1.2170    1.3383   -0.2476 C.3     1  UNL1        0.1860
     13 C          -2.2493    0.2469    0.0796 C.2     1  UNL1        0.3367
     14 H           1.7515   -2.0903    0.0880 H       1  UNL1        0.0648
     15 H          -0.6370   -1.8752    0.9228 H       1  UNL1        0.0652
     16 H           3.0103    0.1423   -0.0876 H       1  UNL1        0.0671
     17 H          -0.6747    0.5770    1.4360 H       1  UNL1        0.0741
     18 H           1.5752    2.0413   -1.0084 H       1  UNL1        0.0936
     19 H           2.5915   -0.9638    1.8797 H       1  UNL1        0.2100
     20 H          -1.4446   -1.8223   -1.1491 H       1  UNL1        0.2100
     21 H           1.0597   -0.4010   -2.0884 H       1  UNL1        0.2101
     22 H           1.3995    2.8656    0.9459 H       1  UNL1        0.2126
     23 H          -3.8964   -0.5759    0.7143 H       1  UNL1        0.2951
@<TRIPOS>BOND
     1     1    11    1
     2     1    12    1
     3     2     8    1
     4     2    19    1
     5     3     9    1
     6     3    20    1
     7     4    10    1
     8     4    21    1
     9     5    12    1
    10     5    22    1
    11     6    13    1
    12     6    23    1
    13     7    13    2
    14     8     9    1
    15     8    10    1
    16     8    14    1
    17     9    11    1
    18     9    15    1
    19    10    12    1
    20    10    16    1
    21    11    13    1
    22    11    17    1
    23    12    18    1
