@<TRIPOS>MOLECULE
kdo
 30 30 0 0 0
SMALL
GASTEIGER

@<TRIPOS>ATOM
      1 O          -0.0034    0.6906   -0.1284 O.3     1  UNL1       -0.3313
      2 O           0.5885   -1.8223   -1.4561 O.3     1  UNL1       -0.3866
      3 O          -1.3430   -3.2413   -0.0604 O.3     1  UNL1       -0.3890
      4 O          -1.4882    0.8076    1.7147 O.3     1  UNL1       -0.3561
      5 O           3.2524   -0.8515    0.3415 O.3     1  UNL1       -0.3869
      6 O           4.0064    1.7908   -0.1886 O.3     1  UNL1       -0.3924
      7 O          -3.4574    1.4609    0.0096 O.3     1  UNL1       -0.4769
      8 O          -1.7249    2.3538   -1.1723 O.2     1  UNL1       -0.2449
      9 C           0.9246   -0.2744    0.3857 C.3     1  UNL1        0.1186
     10 C           0.5083   -1.6900   -0.0353 C.3     1  UNL1        0.1099
     11 C          -0.9195   -1.9764    0.4337 C.3     1  UNL1        0.0890
     12 C          -1.8805   -0.8796   -0.0262 C.3     1  UNL1        0.0410
     13 C          -1.3377    0.5061    0.3345 C.3     1  UNL1        0.2704
     14 C           2.3064    0.1023   -0.1361 C.3     1  UNL1        0.1069
     15 C           2.7262    1.4816    0.3521 C.3     1  UNL1        0.0727
     16 C          -2.1582    1.5418   -0.3685 C.2     1  UNL1        0.3651
     17 H           0.9271   -0.2191    1.4829 H       1  UNL1        0.0651
     18 H           1.1859   -2.4418    0.3835 H       1  UNL1        0.0646
     19 H          -0.9397   -2.0268    1.5294 H       1  UNL1        0.0622
     20 H          -2.0315   -0.9679   -1.1104 H       1  UNL1        0.0349
     21 H          -2.8615   -1.0585    0.4321 H       1  UNL1        0.0349
     22 H           2.3351    0.0859   -1.2323 H       1  UNL1        0.0643
     23 H           2.0307    2.2585    0.0220 H       1  UNL1        0.0584
     24 H           2.8057    1.5207    1.4438 H       1  UNL1        0.0584
     25 H           0.1108   -1.0767   -1.8569 H       1  UNL1        0.2100
     26 H          -0.7101   -3.9075    0.2574 H       1  UNL1        0.2099
     27 H          -1.3152    1.7565    1.8382 H       1  UNL1        0.2133
     28 H           4.0893   -0.6972   -0.1281 H       1  UNL1        0.2100
     29 H           4.6575    1.2183    0.2510 H       1  UNL1        0.2095
     30 H          -4.0126    2.1327   -0.4404 H       1  UNL1        0.2952
@<TRIPOS>BOND
     1     1     9    1
     2     1    13    1
     3     2    10    1
     4     2    25    1
     5     3    11    1
     6     3    26    1
     7     4    13    1
     8     4    27    1
     9     5    14    1
    10     5    28    1
    11     6    15    1
    12     6    29    1
    13     7    16    1
    14     7    30    1
    15     8    16    2
    16     9    10    1
    17     9    14    1
    18     9    17    1
    19    10    11    1
    20    10    18    1
    21    11    12    1
    22    11    19    1
    23    12    13    1
    24    12    20    1
    25    12    21    1
    26    13    16    1
    27    14    15    1
    28    14    22    1
    29    15    23    1
    30    15    24    1
