@<TRIPOS>MOLECULE
l_arabinose
 20 20 0 0 0
SMALL
GASTEIGER

@<TRIPOS>ATOM
      1 O           0.7128   -1.5914   -0.0021 O.3     1  UNL1       -0.3462
      2 O          -1.6955    1.7694   -0.0913 O.3     1  UNL1       -0.3864
      3 O           1.1544    2.0459    0.1891 O.3     1  UNL1       -0.3841
      4 O          -1.8124   -0.8315   -1.0843 O.3     1  UNL1       -0.3869
      5 O           2.5955   -0.3126   -0.5221 O.3     1  UNL1       -0.3649
      6 C          -0.8534    0.7648    0.4675 C.3     1  UNL1        0.1137
      7 C           0.5194    0.8282   -0.2000 C.3     1  UNL1        0.1339
      8 C          -1.4901   -0.6126    0.2901 C.3     1  UNL1        0.1069
      9 C           1.3863   -0.3566    0.2344 C.3     1  UNL1        0.1850
     10 C          -0.5171   -1.7035    0.7187 C.3     1  UNL1        0.0792
     11 H          -0.7569    0.9878    1.5375 H       1  UNL1        0.0647
     12 H           0.4118    0.8578   -1.2912 H       1  UNL1        0.0671
     13 H          -2.4258   -0.6824    0.8551 H       1  UNL1        0.0643
     14 H           1.6579   -0.2741    1.2944 H       1  UNL1        0.0935
     15 H          -0.3121   -1.6601    1.7945 H       1  UNL1        0.0587
     16 H          -0.9297   -2.6913    0.4891 H       1  UNL1        0.0587
     17 H          -1.2471    2.6243    0.0265 H       1  UNL1        0.2100
     18 H           2.0369    2.0561   -0.2193 H       1  UNL1        0.2101
     19 H          -2.3982   -0.1069   -1.3629 H       1  UNL1        0.2100
     20 H           3.2728   -0.7802   -0.0045 H       1  UNL1        0.2126
@<TRIPOS>BOND
     1     1     9    1
     2     1    10    1
     3     2     6    1
     4     2    17    1
     5     3     7    1
     6     3    18    1
     7     4     8    1
     8     4    19    1
     9     5     9    1
    10     5    20    1
    11     6     7    1
    12     6     8    1
    13     6    11    1
    14     7     9    1
    15     7    12    1
    16     8    10    1
    17     8    13    1
    18     9    14    1
    19    10    15    1
    20    10    16    1
