@<TRIPOS>MOLECULE
l_fucose
 23 23 0 0 0
SMALL
GASTEIGER

@<TRIPOS>ATOM
      1 O           0.8866   -1.2096   -0.6085 O.3     1  UNL1       -0.3433
      2 O          -1.3088    2.1747    0.3650 O.3     1  UNL1       -0.3864
      3 O           1.1461    1.6951   -0.8078 O.3     1  UNL1       -0.3866
      4 O          -2.6540   -0.2756   -0.2591 O.3     1  UNL1       -0.3841
      5 O          -0.8292   -2.1003    0.7582 O.3     1  UNL1       -0.3649
      6 C          -0.7039    0.8959    0.5373 C.3     1  UNL1        0.1140
      7 C           0.8182    1.0116    0.4044 C.3     1  UNL1        0.1095
      8 C          -1.2651   -0.0740   -0.5023 C.3     1  UNL1        0.1339
      9 C           1.4646   -0.3805    0.4115 C.3     1  UNL1        0.0873
     10 C          -0.5207   -1.4120   -0.4530 C.3     1  UNL1        0.1853
     11 C           2.9664   -0.3255    0.1542 C.3     1  UNL1       -0.0361
     12 H          -0.9700    0.5681    1.5484 H       1  UNL1        0.0648
     13 H           1.2206    1.6204    1.2224 H       1  UNL1        0.0646
     14 H          -1.1663    0.3650   -1.5027 H       1  UNL1        0.0671
     15 H           1.3047   -0.8582    1.3860 H       1  UNL1        0.0621
     16 H          -0.8594   -2.0554   -1.2709 H       1  UNL1        0.0935
     17 H           3.3960   -1.3316    0.2135 H       1  UNL1        0.0255
     18 H           3.1881    0.0455   -0.8522 H       1  UNL1        0.0255
     19 H           3.4718    0.3112    0.8865 H       1  UNL1        0.0255
     20 H          -0.9257    2.7715    1.0304 H       1  UNL1        0.2100
     21 H           0.6936    2.5556   -0.7873 H       1  UNL1        0.2100
     22 H          -3.0825    0.5973   -0.2760 H       1  UNL1        0.2101
     23 H          -1.0279   -1.4616    1.4597 H       1  UNL1        0.2126
@<TRIPOS>BOND
     1     1     9    1
     2     1    10    1
     3     2     6    1
     4     2    20    1
     5     3     7    1
     6     3    21    1
     7     4     8    1
     8     4    22    1
     9     5    10    1
    10     5    23    1
    11     6     7    1
    12     6     8    1
    13     6    12    1
    14     7     9    1
    15     7    13    1
    16     8    10    1
    17     8    14    1
    18     9    11    1
    19     9    15    1
    20    10    16    1
    21    11    17    1
    22    11    18    1
    23    11    19    1
