@<TRIPOS>MOLECULE
l_rhamnose
 23 23 0 0 0
SMALL
GASTEIGER

@<TRIPOS>ATOM
      1 O           0.4385    1.4854    0.4937 O.3     1  UNL1       -0.3433
      2 O          -1.1845   -2.2759   -0.1546 O.3     1  UNL1       -0.3864
      3 O           1.6035   -1.8418   -0.5843 O.3     1  UNL1       -0.3866
      4 O          -1.7392   -0.1022    1.4922 O.3     1  UNL1       -0.3841
      5 O          -0.8712    1.8391   -1.4533 O.3     1  UNL1       -0.3649
      6 C          -0.6333   -0.9989   -0.4681 C.3     1  UNL1        0.1140
      7 C           0.7804   -0.9057    0.1072 C.3     1  UNL1        0.1095
      8 C          -1.5277    0.1068    0.0951 C.3     1  UNL1        0.1339
      9 C           1.3291    0.5170   -0.0698 C.3     1  UNL1        0.0873
     10 C          -0.8746    1.4770   -0.0767 C.3     1  UNL1        0.1853
     11 C           2.6789    0.6991    0.6187 C.3     1  UNL1       -0.0361
     12 H          -0.5977   -0.9281   -1.5623 H       1  UNL1        0.0648
     13 H           0.7673   -1.1984    1.1642 H       1  UNL1        0.0646
     14 H          -2.5085    0.0689   -0.3912 H       1  UNL1        0.0671
     15 H           1.4723    0.7387   -1.1353 H       1  UNL1        0.0621
     16 H          -1.4589    2.2264    0.4695 H       1  UNL1        0.0935
     17 H           2.6019    0.4882    1.6911 H       1  UNL1        0.0255
     18 H           3.4473    0.0515    0.1872 H       1  UNL1        0.0255
     19 H           3.0152    1.7379    0.5272 H       1  UNL1        0.0255
     20 H          -0.5785   -2.9494   -0.5083 H       1  UNL1        0.2100
     21 H           2.4510   -1.8973   -0.1120 H       1  UNL1        0.2100
     22 H          -0.9064    0.0800    1.9592 H       1  UNL1        0.2101
     23 H          -0.8688    2.8104   -1.4940 H       1  UNL1        0.2126
@<TRIPOS>BOND
     1     1     9    1
     2     1    10    1
     3     2     6    1
     4     2    20    1
     5     3     7    1
     6     3    21    1
     7     4     8    1
     8     4    22    1
     9     5    10    1
    10     5    23    1
    11     6     7    1
    12     6     8    1
    13     6    12    1
    14     7     9    1
    15     7    13    1
    16     8    10    1
    17     8    14    1
    18     9    11    1
    19     9    15    1
    20    10    16    1
    21    11    17    1
    22    11    18    1
    23    11    19    1
