@<TRIPOS>MOLECULE
n_acetylneuraminic_acid_neu5ac
 40 40 0 0 0
SMALL
GASTEIGER

@<TRIPOS>ATOM
      1 O           1.1699   -0.2905    0.1940 O.3     1  UNL1       -0.3321
      2 O          -0.3762    3.5426    0.1491 O.3     1  UNL1       -0.3897
      3 O          -1.0730   -1.1941    1.5998 O.3     1  UNL1       -0.3865
      4 O           2.3723    0.6081   -1.6458 O.3     1  UNL1       -0.3561
      5 O          -0.1145   -2.8207   -1.5364 O.3     1  UNL1       -0.3869
      6 O           4.2837    1.3652    0.0998 O.3     1  UNL1       -0.4769
      7 O          -0.4053   -5.1222   -0.0509 O.3     1  UNL1       -0.3924
      8 O           3.5365   -0.4751    1.2184 O.2     1  UNL1       -0.2449
      9 O          -3.3512    1.5017    1.3350 O.2     1  UNL1       -0.2761
     10 N          -2.0925    1.2951   -0.6122 N.am    1  UNL1       -0.3076
     11 C          -0.7932    1.1565    0.0067 C.3     1  UNL1        0.0779
     12 C          -0.1485   -0.1911   -0.3576 C.3     1  UNL1        0.1114
     13 C           0.1135    2.3235   -0.4049 C.3     1  UNL1        0.0815
     14 C           1.5367    2.1099    0.1068 C.3     1  UNL1        0.0403
     15 C          -0.9415   -1.3742    0.1923 C.3     1  UNL1        0.1111
     16 C           2.0559    0.7234   -0.2663 C.3     1  UNL1        0.2704
     17 C          -0.2856   -2.7256   -0.1175 C.3     1  UNL1        0.1065
     18 C           3.3460    0.4471    0.4395 C.2     1  UNL1        0.3651
     19 C          -1.1056   -3.9375    0.3194 C.3     1  UNL1        0.0727
     20 C          -3.2613    1.4562    0.1109 C.2     1  UNL1        0.2103
     21 C          -4.4660    1.6016   -0.7798 C.3     1  UNL1        0.0122
     22 H          -0.9191    1.2200    1.0952 H       1  UNL1        0.0550
     23 H          -0.0790   -0.2818   -1.4497 H       1  UNL1        0.0643
     24 H           0.1175    2.4402   -1.4949 H       1  UNL1        0.0614
     25 H           2.1798    2.9044   -0.2926 H       1  UNL1        0.0349
     26 H           1.5440    2.2318    1.1989 H       1  UNL1        0.0349
     27 H          -1.9498   -1.3641   -0.2377 H       1  UNL1        0.0646
     28 H           0.7091   -2.7933    0.3389 H       1  UNL1        0.0643
     29 H          -2.1380    1.2776   -1.6272 H       1  UNL1        0.1491
     30 H          -0.4093    3.4447    1.1160 H       1  UNL1        0.2099
     31 H          -2.0766   -3.9547   -0.1863 H       1  UNL1        0.0584
     32 H          -1.2583   -3.9439    1.4026 H       1  UNL1        0.0584
     33 H          -0.1803   -1.2140    1.9853 H       1  UNL1        0.2100
     34 H           2.0263    1.3838   -2.1168 H       1  UNL1        0.2133
     35 H           0.3196   -3.6711   -1.7213 H       1  UNL1        0.2100
     36 H          -5.3777    1.5445   -0.1789 H       1  UNL1        0.0322
     37 H          -4.4298    2.5692   -1.2879 H       1  UNL1        0.0322
     38 H          -4.4857    0.7994   -1.5232 H       1  UNL1        0.0322
     39 H           5.1376    1.2024    0.5543 H       1  UNL1        0.2952
     40 H          -0.9495   -5.8752    0.2362 H       1  UNL1        0.2095
@<TRIPOS>BOND
     1     1    12    1
     2     1    16    1
     3     2    13    1
     4     2    30    1
     5     3    15    1
     6     3    33    1
     7     4    16    1
     8     4    34    1
     9     5    17    1
    10     5    35    1
    11     6    18    1
    12     6    39    1
    13     7    19    1
    14     7    40    1
    15     8    18    2
    16     9    20    2
    17    10    11    1
    18    10    20   am
    19    10    29    1
    20    11    12    1
    21    11    13    1
    22    11    22    1
    23    12    15    1
    24    12    23    1
    25    13    14    1
    26    13    24    1
    27    14    16    1
    28    14    25    1
    29    14    26    1
    30    15    17    1
    31    15    27    1
    32    16    18    1
    33    17    19    1
    34    17    28    1
    35    19    31    1
    36    19    32    1
    37    20    21    1
    38    21    36    1
    39    21    37    1
    40    21    38    1
