@<TRIPOS>MOLECULE
n_acetylgalactosamine_galnac
 30 30 0 0 0
SMALL
GASTEIGER

@<TRIPOS>ATOM
      1 O           1.6274   -0.8667    0.6868 O.3     1  UNL1       -0.3414
      2 O          -1.0711    1.8900   -0.8547 O.3     1  UNL1       -0.3871
      3 O           1.1946    1.9995    0.6991 O.3     1  UNL1       -0.3865
      4 O           0.3462   -2.1965   -0.7898 O.3     1  UNL1       -0.3654
      5 O           4.3251   -0.7854    0.2587 O.3     1  UNL1       -0.3924
      6 O          -3.2509    0.9047    0.9531 O.2     1  UNL1       -0.2761
      7 N          -1.9967   -0.7475   -0.1037 N.am    1  UNL1       -0.3053
      8 C          -0.1961    0.7647   -0.8268 C.3     1  UNL1        0.1065
      9 C          -0.6838   -0.2399    0.2236 C.3     1  UNL1        0.1021
     10 C           1.2294    1.2271   -0.5034 C.3     1  UNL1        0.1112
     11 C           2.1494    0.0131   -0.3199 C.3     1  UNL1        0.1129
     12 C           0.3282   -1.3832    0.3827 C.3     1  UNL1        0.1776
     13 C           3.5618    0.3976    0.1063 C.3     1  UNL1        0.0730
     14 C          -3.1701   -0.1272    0.2920 C.2     1  UNL1        0.2104
     15 C          -4.3935   -0.8503   -0.2039 C.3     1  UNL1        0.0122
     16 H          -0.2207    0.3112   -1.8249 H       1  UNL1        0.0640
     17 H          -0.7685    0.2846    1.1849 H       1  UNL1        0.0575
     18 H           1.5932    1.8863   -1.2999 H       1  UNL1        0.0646
     19 H           2.2177   -0.5525   -1.2581 H       1  UNL1        0.0647
     20 H           0.0212   -2.0209    1.2199 H       1  UNL1        0.0928
     21 H           3.5632    0.9053    1.0758 H       1  UNL1        0.0584
     22 H           4.0387    1.0391   -0.6411 H       1  UNL1        0.0584
     23 H          -2.0519   -1.5641   -0.7061 H       1  UNL1        0.1492
     24 H          -1.0261    2.3227    0.0151 H       1  UNL1        0.2100
     25 H           2.0373    2.4793    0.7661 H       1  UNL1        0.2100
     26 H           0.6315   -3.0849   -0.5169 H       1  UNL1        0.2125
     27 H           5.2208   -0.5169    0.5255 H       1  UNL1        0.2095
     28 H          -5.2757   -0.4916    0.3335 H       1  UNL1        0.0322
     29 H          -4.5197   -0.6594   -1.2731 H       1  UNL1        0.0322
     30 H          -4.2960   -1.9265   -0.0348 H       1  UNL1        0.0322
@<TRIPOS>BOND
     1     1    11    1
     2     1    12    1
     3     2     8    1
     4     2    24    1
     5     3    10    1
     6     3    25    1
     7     4    12    1
     8     4    26    1
     9     5    13    1
    10     5    27    1
    11     6    14    2
    12     7     9    1
    13     7    14   am
    14     7    23    1
    15     8     9    1
    16     8    10    1
    17     8    16    1
    18     9    12    1
    19     9    17    1
    20    10    11    1
    21    10    18    1
    22    11    13    1
    23    11    19    1
    24    12    20    1
    25    13    21    1
    26    13    22    1
    27    14    15    1
    28    15    28    1
    29    15    29    1
    30    15    30    1
