@<TRIPOS>MOLECULE
n_acetylglucosamine_glcnac
 30 30 0 0 0
SMALL
GASTEIGER

@<TRIPOS>ATOM
      1 O           1.5536   -1.1549    0.2827 O.3     1  UNL1       -0.3414
      2 O          -0.9387    2.1052    0.3134 O.3     1  UNL1       -0.3871
      3 O           1.8248    2.4352   -0.4350 O.3     1  UNL1       -0.3865
      4 O          -0.2497   -2.6281    0.2944 O.3     1  UNL1       -0.3654
      5 O           4.2672   -1.0532   -0.1176 O.3     1  UNL1       -0.3924
      6 O          -3.3136    0.4968    1.1365 O.2     1  UNL1       -0.2761
      7 N          -1.9991   -0.4939   -0.5092 N.am    1  UNL1       -0.3053
      8 C          -0.1443    1.0837   -0.2930 C.3     1  UNL1        0.1065
      9 C          -0.7093   -0.2805    0.1141 C.3     1  UNL1        0.1021
     10 C           1.3069    1.2499    0.1633 C.3     1  UNL1        0.1112
     11 C           2.1439    0.0347   -0.2443 C.3     1  UNL1        0.1129
     12 C           0.2569   -1.4118   -0.2538 C.3     1  UNL1        0.1776
     13 C           3.5692    0.1081    0.2940 C.3     1  UNL1        0.0730
     14 C          -3.1907   -0.0840    0.0613 C.2     1  UNL1        0.2104
     15 C          -4.3771   -0.4072   -0.8070 C.3     1  UNL1        0.0122
     16 H          -0.2184    1.2305   -1.3776 H       1  UNL1        0.0640
     17 H          -0.8703   -0.2897    1.2010 H       1  UNL1        0.0575
     18 H           1.3288    1.3876    1.2520 H       1  UNL1        0.0646
     19 H           2.1980   -0.0543   -1.3378 H       1  UNL1        0.0647
     20 H           0.3264   -1.5361   -1.3421 H       1  UNL1        0.0928
     21 H           3.5841    0.1380    1.3886 H       1  UNL1        0.0584
     22 H           4.1061    0.9793   -0.0904 H       1  UNL1        0.0584
     23 H          -2.0162   -0.9067   -1.4377 H       1  UNL1        0.1492
     24 H          -0.8844    1.9977    1.2783 H       1  UNL1        0.2100
     25 H           2.6702    2.6412   -0.0024 H       1  UNL1        0.2100
     26 H           0.1142   -3.3545   -0.2398 H       1  UNL1        0.2125
     27 H           3.7848   -1.8241    0.2272 H       1  UNL1        0.2095
     28 H          -5.2980   -0.2929   -0.2286 H       1  UNL1        0.0322
     29 H          -4.4001    0.2759   -1.6604 H       1  UNL1        0.0322
     30 H          -4.3168   -1.4384   -1.1667 H       1  UNL1        0.0322
@<TRIPOS>BOND
     1     1    11    1
     2     1    12    1
     3     2     8    1
     4     2    24    1
     5     3    10    1
     6     3    25    1
     7     4    12    1
     8     4    26    1
     9     5    13    1
    10     5    27    1
    11     6    14    2
    12     7     9    1
    13     7    14   am
    14     7    23    1
    15     8     9    1
    16     8    10    1
    17     8    16    1
    18     9    12    1
    19     9    17    1
    20    10    11    1
    21    10    18    1
    22    11    13    1
    23    11    19    1
    24    12    20    1
    25    13    21    1
    26    13    22    1
    27    14    15    1
    28    15    28    1
    29    15    29    1
    30    15    30    1
