@<TRIPOS>MOLECULE
alpha_linolenic_acid_c18_3
 50 49 0 0 0
SMALL
GASTEIGER

@<TRIPOS>ATOM
      1 O           4.1813   -0.9790   -0.6113 O.3     1  UNL1       -0.4806
      2 O           4.5798    0.2316    1.2706 O.2     1  UNL1       -0.2510
      3 C           0.7602    2.7874    0.0367 C.3     1  UNL1       -0.0530
      4 C          -0.6525    2.2005    0.1142 C.3     1  UNL1       -0.0528
      5 C           1.8161    1.7643   -0.3899 C.3     1  UNL1       -0.0526
      6 C          -1.6977    3.2044    0.6150 C.3     1  UNL1       -0.0496
      7 C           3.2191    2.3801   -0.3787 C.3     1  UNL1       -0.0430
      8 C          -3.0946    2.5857    0.7615 C.3     1  UNL1       -0.0348
      9 C           4.2931    1.3937   -0.8275 C.3     1  UNL1        0.0448
     10 C          -3.7513    2.0080   -0.4639 C.2     1  UNL1       -0.0876
     11 C           4.3720    0.1808    0.0653 C.2     1  UNL1        0.3047
     12 C          -4.1060    0.7309   -0.6733 C.2     1  UNL1       -0.0842
     13 C          -3.8919   -0.3667    0.3290 C.3     1  UNL1       -0.0165
     14 C          -3.7767   -1.7053   -0.3402 C.2     1  UNL1       -0.0839
     15 C          -2.6093   -2.2665   -0.6898 C.2     1  UNL1       -0.0839
     16 C          -1.2726   -1.6257   -0.4552 C.3     1  UNL1       -0.0165
     17 C          -0.7328   -1.9587    0.9051 C.2     1  UNL1       -0.0842
     18 C           0.0570   -3.0132    1.1573 C.2     1  UNL1       -0.0879
     19 C           0.5000   -3.9923    0.1107 C.3     1  UNL1       -0.0376
     20 C           1.8070   -3.5600   -0.5356 C.3     1  UNL1       -0.0618
     21 H           0.7628    3.6297   -0.6660 H       1  UNL1        0.0265
     22 H           1.0301    3.1935    1.0196 H       1  UNL1        0.0265
     23 H          -0.9361    1.8337   -0.8789 H       1  UNL1        0.0265
     24 H          -0.6404    1.3377    0.7905 H       1  UNL1        0.0265
     25 H           1.5812    1.3932   -1.3947 H       1  UNL1        0.0265
     26 H           1.7752    0.9052    0.2899 H       1  UNL1        0.0265
     27 H          -1.3856    3.6064    1.5865 H       1  UNL1        0.0268
     28 H          -1.7465    4.0517   -0.0800 H       1  UNL1        0.0268
     29 H           3.4498    2.7376    0.6324 H       1  UNL1        0.0270
     30 H           3.2423    3.2537   -1.0411 H       1  UNL1        0.0270
     31 H          -3.7629    3.3764    1.1289 H       1  UNL1        0.0307
     32 H          -3.0600    1.8538    1.5753 H       1  UNL1        0.0307
     33 H           4.0941    1.0742   -1.8573 H       1  UNL1        0.0377
     34 H           5.2789    1.8717   -0.8287 H       1  UNL1        0.0377
     35 H          -3.9699    2.7230   -1.2550 H       1  UNL1        0.0569
     36 H          -4.6128    0.4880   -1.6047 H       1  UNL1        0.0572
     37 H          -3.0308   -0.1790    0.9742 H       1  UNL1        0.0350
     38 H          -4.7651   -0.4072    0.9923 H       1  UNL1        0.0350
     39 H          -4.6986   -2.2385   -0.5585 H       1  UNL1        0.0572
     40 H          -2.6221   -3.2438   -1.1652 H       1  UNL1        0.0572
     41 H          -0.5919   -1.9363   -1.2555 H       1  UNL1        0.0350
     42 H          -1.3259   -0.5390   -0.5638 H       1  UNL1        0.0350
     43 H           4.2427   -1.7592   -0.0203 H       1  UNL1        0.2951
     44 H          -1.0027   -1.3038    1.7293 H       1  UNL1        0.0572
     45 H           0.4134   -3.1702    2.1718 H       1  UNL1        0.0569
     46 H          -0.2640   -4.1449   -0.6585 H       1  UNL1        0.0305
     47 H           0.6372   -4.9697    0.5886 H       1  UNL1        0.0305
     48 H           1.7112   -2.5924   -1.0384 H       1  UNL1        0.0233
     49 H           2.1197   -4.2974   -1.2819 H       1  UNL1        0.0233
     50 H           2.6045   -3.4797    0.2106 H       1  UNL1        0.0233
@<TRIPOS>BOND
     1     1    11    1
     2     1    43    1
     3     2    11    2
     4     3     4    1
     5     3     5    1
     6     3    21    1
     7     3    22    1
     8     4     6    1
     9     4    23    1
    10     4    24    1
    11     5     7    1
    12     5    25    1
    13     5    26    1
    14     6     8    1
    15     6    27    1
    16     6    28    1
    17     7     9    1
    18     7    29    1
    19     7    30    1
    20     8    10    1
    21     8    31    1
    22     8    32    1
    23     9    11    1
    24     9    33    1
    25     9    34    1
    26    10    12    2
    27    10    35    1
    28    12    13    1
    29    12    36    1
    30    13    14    1
    31    13    37    1
    32    13    38    1
    33    14    15    2
    34    14    39    1
    35    15    16    1
    36    15    40    1
    37    16    17    1
    38    16    41    1
    39    16    42    1
    40    17    18    2
    41    17    44    1
    42    18    19    1
    43    18    45    1
    44    19    20    1
    45    19    46    1
    46    19    47    1
    47    20    48    1
    48    20    49    1
    49    20    50    1
