@<TRIPOS>MOLECULE
anandamide
 62 61 0 0 0
SMALL
GASTEIGER

@<TRIPOS>ATOM
      1 O          10.8982    3.7800    8.6827 O.2     1  UNL1       -0.2758
      2 O          11.3591    0.0544    7.7083 O.3     1  UNL1       -0.3935
      3 N          10.1091    2.5157    6.9418 N.am    1  UNL1       -0.3131
      4 C           1.5021   -6.8121    8.6604 C.3     1  UNL1       -0.0496
      5 C           0.4138   -7.1016    7.6240 C.3     1  UNL1       -0.0530
      6 C           2.9003   -6.7675    8.0379 C.3     1  UNL1       -0.0348
      7 C          -0.9756   -7.1652    8.2531 C.3     1  UNL1       -0.0559
      8 C           7.9504    2.4625    9.2676 C.3     1  UNL1       -0.0414
      9 C           6.5088    2.7201    9.7204 C.3     1  UNL1       -0.0343
     10 C           8.5213    3.6072    8.4295 C.3     1  UNL1        0.0242
     11 C           3.0122   -5.6931    6.9932 C.2     1  UNL1       -0.0876
     12 C          -2.0348   -7.4565    7.2004 C.3     1  UNL1       -0.0653
     13 C           3.3770   -4.4264    7.2417 C.2     1  UNL1       -0.0842
     14 C           5.5798    2.8877    8.5385 C.2     1  UNL1       -0.0876
     15 C           9.9554    3.3410    8.0252 C.2     1  UNL1        0.2131
     16 C           3.7409   -3.9158    8.5989 C.3     1  UNL1       -0.0165
     17 C           4.9394    1.8945    7.9169 C.2     1  UNL1       -0.0842
     18 C           5.0000    0.4461    8.2931 C.3     1  UNL1       -0.0165
     19 C          11.4219    2.1184    6.4480 C.3     1  UNL1        0.0348
     20 C           5.1274   -3.3737    8.6279 C.2     1  UNL1       -0.0839
     21 C           4.5930   -1.6677   10.4044 C.3     1  UNL1       -0.0165
     22 C           3.6515   -0.0518    8.7112 C.2     1  UNL1       -0.0839
     23 C           5.5195   -2.3814    9.4527 C.2     1  UNL1       -0.0839
     24 C           3.4725   -0.9480    9.6936 C.2     1  UNL1       -0.0839
     25 C          12.1585    1.2055    7.4280 C.3     1  UNL1        0.0597
     26 H           1.4905   -7.5864    9.4369 H       1  UNL1        0.0268
     27 H           1.2856   -5.8590    9.1671 H       1  UNL1        0.0268
     28 H           0.4140   -6.3234    6.8538 H       1  UNL1        0.0265
     29 H           0.6404   -8.0524    7.1251 H       1  UNL1        0.0265
     30 H           3.1490   -7.7309    7.5752 H       1  UNL1        0.0307
     31 H           3.6419   -6.6318    8.8273 H       1  UNL1        0.0307
     32 H          -1.0030   -7.9454    9.0202 H       1  UNL1        0.0263
     33 H          -1.2076   -6.2133    8.7434 H       1  UNL1        0.0263
     34 H           8.0014    1.5240    8.7012 H       1  UNL1        0.0273
     35 H           8.5759    2.3099   10.1595 H       1  UNL1        0.0273
     36 H           6.1823    1.8990   10.3663 H       1  UNL1        0.0307
     37 H           6.4523    3.6149   10.3446 H       1  UNL1        0.0307
     38 H           8.4902    4.5445    8.9953 H       1  UNL1        0.0358
     39 H           7.9343    3.7632    7.5186 H       1  UNL1        0.0358
     40 H           2.7280   -5.9557    5.9740 H       1  UNL1        0.0569
     41 H          -1.8420   -8.4142    6.7050 H       1  UNL1        0.0230
     42 H          -3.0254   -7.5061    7.6630 H       1  UNL1        0.0230
     43 H          -2.0566   -6.6741    6.4343 H       1  UNL1        0.0230
     44 H           3.3656   -3.6923    6.4346 H       1  UNL1        0.0572
     45 H           5.4567    3.8963    8.1758 H       1  UNL1        0.0569
     46 H           3.6787   -4.6785    9.3787 H       1  UNL1        0.0350
     47 H           2.9753   -3.1876    8.8524 H       1  UNL1        0.0350
     48 H           4.3097    2.1355    7.0559 H       1  UNL1        0.0572
     49 H           5.3795   -0.1314    7.4436 H       1  UNL1        0.0350
     50 H           5.7186    0.3064    9.1023 H       1  UNL1        0.0350
     51 H           9.2939    2.1155    6.5015 H       1  UNL1        0.1488
     52 H          11.2453    1.5861    5.5068 H       1  UNL1        0.0484
     53 H          12.0159    3.0132    6.2382 H       1  UNL1        0.0484
     54 H           5.8651   -3.8209    7.9602 H       1  UNL1        0.0572
     55 H           5.1566   -0.9442   11.0073 H       1  UNL1        0.0350
     56 H           4.1822   -2.3977   11.1127 H       1  UNL1        0.0350
     57 H           2.7805    0.3292    8.1819 H       1  UNL1        0.0572
     58 H           6.5484   -2.0441    9.4145 H       1  UNL1        0.0572
     59 H           2.4583   -1.2712    9.9288 H       1  UNL1        0.0572
     60 H          13.1051    0.8656    6.9966 H       1  UNL1        0.0573
     61 H          12.3785    1.7079    8.3743 H       1  UNL1        0.0573
     62 H          10.5780    0.3946    8.1795 H       1  UNL1        0.2095
@<TRIPOS>BOND
     1     1    15    2
     2     2    25    1
     3     2    62    1
     4     3    15   am
     5     3    19    1
     6     3    51    1
     7     4     5    1
     8     4     6    1
     9     4    26    1
    10     4    27    1
    11     5     7    1
    12     5    28    1
    13     5    29    1
    14     6    11    1
    15     6    30    1
    16     6    31    1
    17     7    12    1
    18     7    32    1
    19     7    33    1
    20     8     9    1
    21     8    10    1
    22     8    34    1
    23     8    35    1
    24     9    14    1
    25     9    36    1
    26     9    37    1
    27    10    15    1
    28    10    38    1
    29    10    39    1
    30    11    13    2
    31    11    40    1
    32    12    41    1
    33    12    42    1
    34    12    43    1
    35    13    16    1
    36    13    44    1
    37    14    17    2
    38    14    45    1
    39    16    20    1
    40    16    46    1
    41    16    47    1
    42    17    18    1
    43    17    48    1
    44    18    22    1
    45    18    49    1
    46    18    50    1
    47    19    25    1
    48    19    52    1
    49    19    53    1
    50    20    23    2
    51    20    54    1
    52    21    23    1
    53    21    24    1
    54    21    55    1
    55    21    56    1
    56    22    24    2
    57    22    57    1
    58    23    58    1
    59    24    59    1
    60    25    60    1
    61    25    61    1
