@<TRIPOS>MOLECULE
arachidic_acid_c20
 62 61 0 0 0
SMALL
GASTEIGER

@<TRIPOS>ATOM
      1 O           3.0581   -1.1608   -3.4980 O.3     1  UNL1       -0.4806
      2 O           3.2497    0.2760   -1.8038 O.2     1  UNL1       -0.2510
      3 C          -5.8903   -2.5555   -4.8861 C.3     1  UNL1       -0.0531
      4 C          -5.2899   -3.0585   -3.5705 C.3     1  UNL1       -0.0531
      5 C          -5.3590   -3.3595   -6.0670 C.3     1  UNL1       -0.0531
      6 C          -3.7633   -2.9314   -3.5015 C.3     1  UNL1       -0.0531
      7 C          -5.8604   -2.8279   -7.3978 C.3     1  UNL1       -0.0531
      8 C          -3.2662   -1.4943   -3.6868 C.3     1  UNL1       -0.0531
      9 C          -5.3184   -3.7028   -8.5230 C.3     1  UNL1       -0.0531
     10 C          -3.7592   -0.5493   -2.5860 C.3     1  UNL1       -0.0531
     11 C          -5.8067   -3.2077   -9.8735 C.3     1  UNL1       -0.0531
     12 C          -3.2516   -0.9250   -1.1875 C.3     1  UNL1       -0.0531
     13 C          -5.2967   -4.1085  -10.9935 C.3     1  UNL1       -0.0531
     14 C          -1.7252   -0.9745   -1.0783 C.3     1  UNL1       -0.0530
     15 C          -5.8004   -3.6171  -12.3463 C.3     1  UNL1       -0.0531
     16 C          -1.0904    0.3833   -1.3969 C.3     1  UNL1       -0.0526
     17 C          -5.3025   -4.5158  -13.4734 C.3     1  UNL1       -0.0533
     18 C           0.4350    0.3694   -1.3772 C.3     1  UNL1       -0.0430
     19 C          -5.8147   -4.0329  -14.8269 C.3     1  UNL1       -0.0559
     20 C           1.0313   -0.4947   -2.4898 C.3     1  UNL1        0.0448
     21 C          -5.3211   -4.9288  -15.9492 C.3     1  UNL1       -0.0653
     22 C           2.5291   -0.3898   -2.5231 C.2     1  UNL1        0.3047
     23 H          -6.9819   -2.6448   -4.8401 H       1  UNL1        0.0265
     24 H          -5.6816   -1.4880   -5.0252 H       1  UNL1        0.0265
     25 H          -5.5634   -4.1117   -3.4295 H       1  UNL1        0.0265
     26 H          -5.7524   -2.5170   -2.7376 H       1  UNL1        0.0265
     27 H          -4.2657   -3.3348   -6.0928 H       1  UNL1        0.0265
     28 H          -5.6541   -4.4099   -5.9455 H       1  UNL1        0.0265
     29 H          -3.2936   -3.5699   -4.2573 H       1  UNL1        0.0265
     30 H          -3.4158   -3.3363   -2.5451 H       1  UNL1        0.0265
     31 H          -6.9555   -2.8223   -7.4144 H       1  UNL1        0.0265
     32 H          -5.5222   -1.7932   -7.5348 H       1  UNL1        0.0265
     33 H          -3.5788   -1.1029   -4.6613 H       1  UNL1        0.0265
     34 H          -2.1713   -1.4969   -3.7304 H       1  UNL1        0.0265
     35 H          -4.2210   -3.6994   -8.5020 H       1  UNL1        0.0265
     36 H          -5.6385   -4.7407   -8.3688 H       1  UNL1        0.0265
     37 H          -4.8538   -0.5213   -2.5710 H       1  UNL1        0.0265
     38 H          -3.4584    0.4737   -2.8351 H       1  UNL1        0.0265
     39 H          -6.9031   -3.1885   -9.8846 H       1  UNL1        0.0265
     40 H          -5.4610   -2.1796  -10.0374 H       1  UNL1        0.0265
     41 H          -3.6582   -1.9001   -0.8938 H       1  UNL1        0.0265
     42 H          -3.6459   -0.2058   -0.4609 H       1  UNL1        0.0265
     43 H          -4.1997   -4.1241  -10.9869 H       1  UNL1        0.0265
     44 H          -5.6355   -5.1379  -10.8228 H       1  UNL1        0.0265
     45 H          -1.3375   -1.7531   -1.7441 H       1  UNL1        0.0265
     46 H          -1.4470   -1.2803   -0.0656 H       1  UNL1        0.0265
     47 H          -6.8973   -3.5983  -12.3442 H       1  UNL1        0.0265
     48 H          -5.4590   -2.5882  -12.5137 H       1  UNL1        0.0265
     49 H          -1.4505    1.1158   -0.6644 H       1  UNL1        0.0265
     50 H          -1.4067    0.7432   -2.3816 H       1  UNL1        0.0265
     51 H          -4.2056   -4.5301  -13.4747 H       1  UNL1        0.0265
     52 H          -5.6381   -5.5461  -13.2973 H       1  UNL1        0.0265
     53 H           0.7948    0.0332   -0.3981 H       1  UNL1        0.0270
     54 H           0.7821    1.4034   -1.5005 H       1  UNL1        0.0270
     55 H          -6.9106   -4.0209  -14.8274 H       1  UNL1        0.0263
     56 H          -5.4781   -3.0055  -15.0073 H       1  UNL1        0.0263
     57 H           0.6405   -0.1704   -3.4615 H       1  UNL1        0.0377
     58 H           0.7734   -1.5475   -2.3347 H       1  UNL1        0.0377
     59 H          -5.6632   -5.9588  -15.8061 H       1  UNL1        0.0230
     60 H          -5.7001   -4.5739  -16.9117 H       1  UNL1        0.0230
     61 H          -4.2274   -4.9330  -15.9933 H       1  UNL1        0.0230
     62 H           4.0225   -1.0043   -3.4201 H       1  UNL1        0.2951
@<TRIPOS>BOND
     1     1    22    1
     2     1    62    1
     3     2    22    2
     4     3     4    1
     5     3     5    1
     6     3    23    1
     7     3    24    1
     8     4     6    1
     9     4    25    1
    10     4    26    1
    11     5     7    1
    12     5    27    1
    13     5    28    1
    14     6     8    1
    15     6    29    1
    16     6    30    1
    17     7     9    1
    18     7    31    1
    19     7    32    1
    20     8    10    1
    21     8    33    1
    22     8    34    1
    23     9    11    1
    24     9    35    1
    25     9    36    1
    26    10    12    1
    27    10    37    1
    28    10    38    1
    29    11    13    1
    30    11    39    1
    31    11    40    1
    32    12    14    1
    33    12    41    1
    34    12    42    1
    35    13    15    1
    36    13    43    1
    37    13    44    1
    38    14    16    1
    39    14    45    1
    40    14    46    1
    41    15    17    1
    42    15    47    1
    43    15    48    1
    44    16    18    1
    45    16    49    1
    46    16    50    1
    47    17    19    1
    48    17    51    1
    49    17    52    1
    50    18    20    1
    51    18    53    1
    52    18    54    1
    53    19    21    1
    54    19    55    1
    55    19    56    1
    56    20    22    1
    57    20    57    1
    58    20    58    1
    59    21    59    1
    60    21    60    1
    61    21    61    1
