@<TRIPOS>MOLECULE
arachidonic_acid_c20_4
 54 53 0 0 0
SMALL
GASTEIGER

@<TRIPOS>ATOM
      1 O          -0.0983   -2.0287    2.9613 O.3     1  UNL1       -0.4806
      2 O          -1.3550   -0.4083    1.9797 O.2     1  UNL1       -0.2510
      3 C          -2.0825    1.8540   -0.9263 C.3     1  UNL1       -0.0496
      4 C          -3.4134    1.6686   -0.1912 C.3     1  UNL1       -0.0530
      5 C          -1.1636    2.8901   -0.2710 C.3     1  UNL1       -0.0348
      6 C          -4.3014    0.6476   -0.9039 C.3     1  UNL1       -0.0559
      7 C           0.1704    3.0180   -0.9490 C.2     1  UNL1       -0.0876
      8 C          -5.6369    0.4809   -0.1964 C.3     1  UNL1       -0.0653
      9 C          -1.5028   -2.5433   -0.1502 C.3     1  UNL1       -0.0395
     10 C          -0.0307   -2.6532   -0.5605 C.3     1  UNL1       -0.0343
     11 C           1.3387    2.7406   -0.3510 C.2     1  UNL1       -0.0842
     12 C           1.4605    2.2683    1.0684 C.3     1  UNL1       -0.0165
     13 C          -1.7171   -2.7122    1.3518 C.3     1  UNL1        0.0451
     14 C           0.3118   -2.6193   -2.0257 C.2     1  UNL1       -0.0876
     15 C           1.7108   -0.5419   -2.0011 C.3     1  UNL1       -0.0165
     16 C           2.8983    2.1310    1.4749 C.2     1  UNL1       -0.0839
     17 C           1.0633   -1.7173   -2.6757 C.2     1  UNL1       -0.0842
     18 C           3.0080   -0.3011    0.8746 C.3     1  UNL1       -0.0165
     19 C           3.5889    0.9839    1.3883 C.2     1  UNL1       -0.0839
     20 C           3.1302   -0.8386   -1.6146 C.2     1  UNL1       -0.0839
     21 C           3.6824   -0.7298   -0.3962 C.2     1  UNL1       -0.0839
     22 C          -1.0617   -1.5890    2.1137 C.2     1  UNL1        0.3047
     23 H          -2.2787    2.1518   -1.9643 H       1  UNL1        0.0268
     24 H          -1.5618    0.8889   -0.9704 H       1  UNL1        0.0268
     25 H          -3.2253    1.3420    0.8380 H       1  UNL1        0.0265
     26 H          -3.9336    2.6323   -0.1337 H       1  UNL1        0.0265
     27 H          -1.6530    3.8715   -0.3098 H       1  UNL1        0.0307
     28 H          -1.0663    2.6492    0.7923 H       1  UNL1        0.0307
     29 H          -3.7969   -0.3228   -0.9508 H       1  UNL1        0.0263
     30 H          -4.4818    0.9686   -1.9365 H       1  UNL1        0.0263
     31 H           0.1766    3.3545   -1.9823 H       1  UNL1        0.0569
     32 H          -6.1847    1.4280   -0.1636 H       1  UNL1        0.0230
     33 H          -6.2561   -0.2518   -0.7233 H       1  UNL1        0.0230
     34 H          -5.4946    0.1297    0.8306 H       1  UNL1        0.0230
     35 H          -1.8891   -1.5723   -0.4777 H       1  UNL1        0.0273
     36 H          -2.0834   -3.3101   -0.6772 H       1  UNL1        0.0273
     37 H           0.3496   -3.6131   -0.1841 H       1  UNL1        0.0307
     38 H           0.5408   -1.8979   -0.0178 H       1  UNL1        0.0307
     39 H           2.2453    2.8632   -0.9400 H       1  UNL1        0.0572
     40 H           0.8848    1.3540    1.2320 H       1  UNL1        0.0350
     41 H           1.0220    3.0214    1.7365 H       1  UNL1        0.0350
     42 H          -1.3182   -3.6753    1.6895 H       1  UNL1        0.0378
     43 H          -2.7850   -2.7028    1.5952 H       1  UNL1        0.0378
     44 H          -0.1026   -3.4353   -2.6154 H       1  UNL1        0.0569
     45 H           1.7234    0.2868   -2.7208 H       1  UNL1        0.0350
     46 H           1.1037   -0.1778   -1.1701 H       1  UNL1        0.0350
     47 H           1.2305   -1.8421   -3.7425 H       1  UNL1        0.0572
     48 H           3.4039    3.0190    1.8460 H       1  UNL1        0.0572
     49 H           3.2002   -1.0751    1.6292 H       1  UNL1        0.0350
     50 H           1.9260   -0.2852    0.7712 H       1  UNL1        0.0350
     51 H           4.6292    0.9775    1.7044 H       1  UNL1        0.0572
     52 H           3.7851   -1.1563   -2.4252 H       1  UNL1        0.0572
     53 H           4.7379   -0.9845   -0.3077 H       1  UNL1        0.0572
     54 H           0.3292   -1.2895    3.4439 H       1  UNL1        0.2951
@<TRIPOS>BOND
     1     1    22    1
     2     1    54    1
     3     2    22    2
     4     3     4    1
     5     3     5    1
     6     3    23    1
     7     3    24    1
     8     4     6    1
     9     4    25    1
    10     4    26    1
    11     5     7    1
    12     5    27    1
    13     5    28    1
    14     6     8    1
    15     6    29    1
    16     6    30    1
    17     7    11    2
    18     7    31    1
    19     8    32    1
    20     8    33    1
    21     8    34    1
    22     9    10    1
    23     9    13    1
    24     9    35    1
    25     9    36    1
    26    10    14    1
    27    10    37    1
    28    10    38    1
    29    11    12    1
    30    11    39    1
    31    12    16    1
    32    12    40    1
    33    12    41    1
    34    13    22    1
    35    13    42    1
    36    13    43    1
    37    14    17    2
    38    14    44    1
    39    15    17    1
    40    15    20    1
    41    15    45    1
    42    15    46    1
    43    16    19    2
    44    16    48    1
    45    17    47    1
    46    18    19    1
    47    18    21    1
    48    18    49    1
    49    18    50    1
    50    19    51    1
    51    20    21    2
    52    20    52    1
    53    21    53    1
