@<TRIPOS>MOLECULE
behenic_acid_c22
 68 67 0 0 0
SMALL
GASTEIGER

@<TRIPOS>ATOM
      1 O           2.9865   -1.4916    3.5148 O.3     1  UNL1       -0.4806
      2 O           3.1503   -0.5916    1.4845 O.2     1  UNL1       -0.2510
      3 C          -5.2053    5.4706    3.8874 C.3     1  UNL1       -0.0531
      4 C          -5.7203    4.1612    3.2841 C.3     1  UNL1       -0.0531
      5 C          -5.7099    6.6461    3.0465 C.3     1  UNL1       -0.0531
      6 C          -5.1979    4.0264    1.8512 C.3     1  UNL1       -0.0531
      7 C          -7.2417    6.6407    3.0452 C.3     1  UNL1       -0.0531
      8 C          -3.6668    4.0263    1.8715 C.3     1  UNL1       -0.0531
      9 C          -7.7505    6.7779    4.4828 C.3     1  UNL1       -0.0531
     10 C          -3.1732    2.8456    2.7114 C.3     1  UNL1       -0.0531
     11 C          -7.2455    8.0968    5.0775 C.3     1  UNL1       -0.0531
     12 C          -3.6812    1.5374    2.0957 C.3     1  UNL1       -0.0531
     13 C          -7.7682    9.2744    4.2460 C.3     1  UNL1       -0.0531
     14 C          -3.1464    1.3980    0.6664 C.3     1  UNL1       -0.0531
     15 C          -9.3002    9.2780    4.2428 C.3     1  UNL1       -0.0531
     16 C          -1.6168    1.3913    0.6836 C.3     1  UNL1       -0.0530
     17 C          -9.8306    9.4129    5.6737 C.3     1  UNL1       -0.0531
     18 C          -1.1124    0.2139    1.5258 C.3     1  UNL1       -0.0526
     19 C         -11.3517    9.3980    5.6963 C.3     1  UNL1       -0.0533
     20 C           0.4056    0.2039    1.5780 C.3     1  UNL1       -0.0430
     21 C         -11.8845    9.5358    7.1221 C.3     1  UNL1       -0.0559
     22 C           0.9388   -0.9636    2.4198 C.3     1  UNL1        0.0448
     23 C         -13.4055    9.5207    7.1176 C.3     1  UNL1       -0.0653
     24 C           2.4252   -0.9656    2.4250 C.2     1  UNL1        0.3047
     25 H          -5.5120    5.5432    4.9331 H       1  UNL1        0.0265
     26 H          -4.1151    5.5032    3.9541 H       1  UNL1        0.0265
     27 H          -6.8117    4.0968    3.2868 H       1  UNL1        0.0265
     28 H          -5.4284    3.3210    3.9189 H       1  UNL1        0.0265
     29 H          -5.2938    7.5810    3.4318 H       1  UNL1        0.0265
     30 H          -5.3375    6.6198    2.0184 H       1  UNL1        0.0265
     31 H          -5.5595    4.8222    1.1948 H       1  UNL1        0.0265
     32 H          -5.6123    3.1260    1.3896 H       1  UNL1        0.0265
     33 H          -7.6136    7.4331    2.3909 H       1  UNL1        0.0265
     34 H          -7.6567    5.7373    2.5906 H       1  UNL1        0.0265
     35 H          -3.2516    4.9585    2.2640 H       1  UNL1        0.0265
     36 H          -3.2839    4.0038    0.8481 H       1  UNL1        0.0265
     37 H          -8.8407    6.7011    4.4987 H       1  UNL1        0.0265
     38 H          -7.4410    5.9434    5.1189 H       1  UNL1        0.0265
     39 H          -3.4930    2.9105    3.7553 H       1  UNL1        0.0265
     40 H          -2.0839    2.8785    2.7904 H       1  UNL1        0.0265
     41 H          -7.5416    8.1677    6.1256 H       1  UNL1        0.0265
     42 H          -6.1534    8.1367    5.1327 H       1  UNL1        0.0265
     43 H          -4.7728    1.4729    2.0918 H       1  UNL1        0.0265
     44 H          -3.3953    0.6952    2.7277 H       1  UNL1        0.0265
     45 H          -7.3637   10.2124    4.6349 H       1  UNL1        0.0265
     46 H          -7.3984    9.2337    3.2133 H       1  UNL1        0.0265
     47 H          -3.5039    2.2082    0.0186 H       1  UNL1        0.0265
     48 H          -3.5458    0.4920    0.2045 H       1  UNL1        0.0265
     49 H          -9.6666   10.0761    3.5931 H       1  UNL1        0.0265
     50 H          -9.6991    8.3608    3.7884 H       1  UNL1        0.0265
     51 H          -1.2133    2.3314    1.0869 H       1  UNL1        0.0265
     52 H          -1.2375    1.3673   -0.3419 H       1  UNL1        0.0265
     53 H          -9.4455    8.6004    6.3003 H       1  UNL1        0.0265
     54 H          -9.4520   10.3311    6.1361 H       1  UNL1        0.0265
     55 H          -1.5011   -0.7345    1.1392 H       1  UNL1        0.0265
     56 H          -1.5030    0.2724    2.5482 H       1  UNL1        0.0265
     57 H         -11.7285   10.2133    5.0708 H       1  UNL1        0.0265
     58 H         -11.7344    8.4696    5.2526 H       1  UNL1        0.0265
     59 H           0.7716    1.1390    2.0220 H       1  UNL1        0.0270
     60 H           0.8037    0.1879    0.5532 H       1  UNL1        0.0270
     61 H         -11.5060    8.7124    7.7389 H       1  UNL1        0.0263
     62 H         -11.5269   10.4614    7.5885 H       1  UNL1        0.0263
     63 H           0.5783   -1.9372    2.0617 H       1  UNL1        0.0377
     64 H           0.5853   -0.8404    3.4467 H       1  UNL1        0.0377
     65 H         -13.7717    8.5827    6.6864 H       1  UNL1        0.0230
     66 H         -13.7960    9.6142    8.1359 H       1  UNL1        0.0230
     67 H         -13.8177   10.3476    6.5301 H       1  UNL1        0.0230
     68 H           3.9373   -1.5687    3.2865 H       1  UNL1        0.2951
@<TRIPOS>BOND
     1     1    24    1
     2     1    68    1
     3     2    24    2
     4     3     4    1
     5     3     5    1
     6     3    25    1
     7     3    26    1
     8     4     6    1
     9     4    27    1
    10     4    28    1
    11     5     7    1
    12     5    29    1
    13     5    30    1
    14     6     8    1
    15     6    31    1
    16     6    32    1
    17     7     9    1
    18     7    33    1
    19     7    34    1
    20     8    10    1
    21     8    35    1
    22     8    36    1
    23     9    11    1
    24     9    37    1
    25     9    38    1
    26    10    12    1
    27    10    39    1
    28    10    40    1
    29    11    13    1
    30    11    41    1
    31    11    42    1
    32    12    14    1
    33    12    43    1
    34    12    44    1
    35    13    15    1
    36    13    45    1
    37    13    46    1
    38    14    16    1
    39    14    47    1
    40    14    48    1
    41    15    17    1
    42    15    49    1
    43    15    50    1
    44    16    18    1
    45    16    51    1
    46    16    52    1
    47    17    19    1
    48    17    53    1
    49    17    54    1
    50    18    20    1
    51    18    55    1
    52    18    56    1
    53    19    21    1
    54    19    57    1
    55    19    58    1
    56    20    22    1
    57    20    59    1
    58    20    60    1
    59    21    23    1
    60    21    61    1
    61    21    62    1
    62    22    24    1
    63    22    63    1
    64    22    64    1
    65    23    65    1
    66    23    66    1
    67    23    67    1
