@<TRIPOS>MOLECULE
butyric_acid_c4
 14 13 0 0 0
SMALL
GASTEIGER

@<TRIPOS>ATOM
      1 O           2.1010   -0.8632   -0.0201 O.3     1  UNL1       -0.4806
      2 O           1.2626    1.2475    0.0156 O.2     1  UNL1       -0.2510
      3 C          -1.3963    0.4139   -0.0360 C.3     1  UNL1       -0.0458
      4 C          -0.2741   -0.6148    0.0331 C.3     1  UNL1        0.0445
      5 C          -2.7795   -0.2191    0.0069 C.3     1  UNL1       -0.0648
      6 C           1.0864    0.0358    0.0005 C.2     1  UNL1        0.3047
      7 H          -1.3026    1.0038   -0.9561 H       1  UNL1        0.0268
      8 H          -1.3052    1.1203    0.7983 H       1  UNL1        0.0268
      9 H          -0.3524   -1.1927    0.9603 H       1  UNL1        0.0377
     10 H          -0.3466   -1.2984   -0.8199 H       1  UNL1        0.0377
     11 H          -2.9224   -0.7828    0.9343 H       1  UNL1        0.0230
     12 H          -2.9227   -0.9021   -0.8364 H       1  UNL1        0.0230
     13 H          -3.5528    0.5536   -0.0450 H       1  UNL1        0.0230
     14 H           2.9786   -0.4250   -0.0289 H       1  UNL1        0.2951
@<TRIPOS>BOND
     1     1     6    1
     2     1    14    1
     3     2     6    2
     4     3     4    1
     5     3     5    1
     6     3     7    1
     7     3     8    1
     8     4     6    1
     9     4     9    1
    10     4    10    1
    11     5    11    1
    12     5    12    1
    13     5    13    1
