@<TRIPOS>MOLECULE
caprylic_acid_c8
 26 25 0 0 0
SMALL
GASTEIGER

@<TRIPOS>ATOM
      1 O          -4.5241   -0.7597    0.0159 O.3     1  UNL1       -0.4806
      2 O          -3.5648    1.2985   -0.0022 O.2     1  UNL1       -0.2510
      3 C           1.6469    0.3982   -0.0108 C.3     1  UNL1       -0.0531
      4 C           0.3981   -0.4883   -0.0331 C.3     1  UNL1       -0.0526
      5 C           2.9560   -0.3937   -0.0006 C.3     1  UNL1       -0.0533
      6 C          -0.9435    0.2500   -0.0216 C.3     1  UNL1       -0.0430
      7 C           4.1672    0.5396    0.0294 C.3     1  UNL1       -0.0559
      8 C          -2.1520   -0.6848    0.0115 C.3     1  UNL1        0.0448
      9 C           5.4721   -0.2401    0.0021 C.3     1  UNL1       -0.0653
     10 C          -3.4560    0.0804    0.0094 C.2     1  UNL1        0.3047
     11 H           1.6282    1.0598   -0.8857 H       1  UNL1        0.0265
     12 H           1.6076    1.0441    0.8750 H       1  UNL1        0.0265
     13 H           0.4377   -1.1299   -0.9226 H       1  UNL1        0.0265
     14 H           0.4335   -1.1605    0.8338 H       1  UNL1        0.0265
     15 H           2.9785   -1.0557    0.8735 H       1  UNL1        0.0265
     16 H           3.0028   -1.0320   -0.8911 H       1  UNL1        0.0265
     17 H          -0.9769    0.9168    0.8494 H       1  UNL1        0.0270
     18 H          -1.0030    0.8962   -0.9064 H       1  UNL1        0.0270
     19 H           4.1370    1.2172   -0.8319 H       1  UNL1        0.0263
     20 H           4.1365    1.1605    0.9322 H       1  UNL1        0.0263
     21 H          -2.1189   -1.3020    0.9159 H       1  UNL1        0.0377
     22 H          -2.1374   -1.3377   -0.8681 H       1  UNL1        0.0377
     23 H           5.5488   -0.9066    0.8671 H       1  UNL1        0.0230
     24 H           6.3243    0.4462    0.0254 H       1  UNL1        0.0230
     25 H           5.5485   -0.8458   -0.9066 H       1  UNL1        0.0230
     26 H          -5.3741   -0.2699    0.0119 H       1  UNL1        0.2951
@<TRIPOS>BOND
     1     1    10    1
     2     1    26    1
     3     2    10    2
     4     3     4    1
     5     3     5    1
     6     3    11    1
     7     3    12    1
     8     4     6    1
     9     4    13    1
    10     4    14    1
    11     5     7    1
    12     5    15    1
    13     5    16    1
    14     6     8    1
    15     6    17    1
    16     6    18    1
    17     7     9    1
    18     7    19    1
    19     7    20    1
    20     8    10    1
    21     8    21    1
    22     8    22    1
    23     9    23    1
    24     9    24    1
    25     9    25    1
