@<TRIPOS>MOLECULE
caproic_acid_c6
 20 19 0 0 0
SMALL
GASTEIGER

@<TRIPOS>ATOM
      1 O          -3.2967   -0.8120   -0.0124 O.3     1  UNL1       -0.4806
      2 O          -2.3932    1.2715   -0.0111 O.2     1  UNL1       -0.2510
      3 C           1.6149   -0.4084   -0.0382 C.3     1  UNL1       -0.0528
      4 C           0.2555    0.2939    0.0223 C.3     1  UNL1       -0.0430
      5 C           2.8382    0.5101    0.0079 C.3     1  UNL1       -0.0559
      6 C          -0.9281   -0.6729    0.0333 C.3     1  UNL1        0.0448
      7 C           4.1612   -0.2389   -0.0011 C.3     1  UNL1       -0.0653
      8 C          -2.2518    0.0567   -0.0008 C.2     1  UNL1        0.3047
      9 H           1.6604   -1.0107   -0.9545 H       1  UNL1        0.0265
     10 H           1.6785   -1.1153    0.7990 H       1  UNL1        0.0265
     11 H           0.2150    0.9254    0.9189 H       1  UNL1        0.0270
     12 H           0.1695    0.9722   -0.8361 H       1  UNL1        0.0270
     13 H           2.7898    1.1305    0.9106 H       1  UNL1        0.0263
     14 H           2.8086    1.1936   -0.8488 H       1  UNL1        0.0263
     15 H          -0.8961   -1.2882    0.9389 H       1  UNL1        0.0377
     16 H          -0.8789   -1.3260   -0.8450 H       1  UNL1        0.0377
     17 H           4.9978    0.4659    0.0317 H       1  UNL1        0.0230
     18 H           4.2401   -0.9026    0.8657 H       1  UNL1        0.0230
     19 H           4.2603   -0.8444   -0.9075 H       1  UNL1        0.0230
     20 H          -4.1595   -0.3453   -0.0315 H       1  UNL1        0.2951
@<TRIPOS>BOND
     1     1     8    1
     2     1    20    1
     3     2     8    2
     4     3     4    1
     5     3     5    1
     6     3     9    1
     7     3    10    1
     8     4     6    1
     9     4    11    1
    10     4    12    1
    11     5     7    1
    12     5    13    1
    13     5    14    1
    14     6     8    1
    15     6    15    1
    16     6    16    1
    17     7    17    1
    18     7    18    1
    19     7    19    1
