@<TRIPOS>MOLECULE
capric_acid_c10
 32 31 0 0 0
SMALL
GASTEIGER

@<TRIPOS>ATOM
      1 O          -5.7761    0.7175   -0.0524 O.3     1  UNL1       -0.4806
      2 O          -4.8040   -1.3327    0.0216 O.2     1  UNL1       -0.2510
      3 C           1.7308    0.4378    0.0702 C.3     1  UNL1       -0.0531
      4 C           0.3942   -0.3082    0.0035 C.3     1  UNL1       -0.0530
      5 C           2.9856   -0.4366   -0.0098 C.3     1  UNL1       -0.0531
      6 C          -0.8611    0.5697    0.0280 C.3     1  UNL1       -0.0526
      7 C           4.2882    0.3656    0.0127 C.3     1  UNL1       -0.0533
      8 C          -2.1646   -0.2360    0.0403 C.3     1  UNL1       -0.0430
      9 C           5.5066   -0.5555   -0.0628 C.3     1  UNL1       -0.0559
     10 C          -3.4030    0.6600   -0.0210 C.3     1  UNL1        0.0448
     11 C           6.8053    0.2331   -0.0090 C.3     1  UNL1       -0.0653
     12 C          -4.7022   -0.1148   -0.0212 C.2     1  UNL1        0.3047
     13 H           1.7623    1.0179    1.0011 H       1  UNL1        0.0265
     14 H           1.7602    1.1675   -0.7490 H       1  UNL1        0.0265
     15 H           0.3497   -1.0120    0.8443 H       1  UNL1        0.0265
     16 H           0.3775   -0.9170   -0.9093 H       1  UNL1        0.0265
     17 H           2.9450   -1.0335   -0.9293 H       1  UNL1        0.0265
     18 H           2.9783   -1.1451    0.8277 H       1  UNL1        0.0265
     19 H          -0.8306    1.2165    0.9134 H       1  UNL1        0.0265
     20 H          -0.8484    1.2301   -0.8477 H       1  UNL1        0.0265
     21 H           4.3026    1.0670   -0.8302 H       1  UNL1        0.0265
     22 H           4.3329    0.9628    0.9315 H       1  UNL1        0.0265
     23 H          -2.2031   -0.8567    0.9441 H       1  UNL1        0.0270
     24 H          -2.1743   -0.9264   -0.8124 H       1  UNL1        0.0270
     25 H           5.4864   -1.2693    0.7691 H       1  UNL1        0.0263
     26 H           5.4762   -1.1378   -0.9911 H       1  UNL1        0.0263
     27 H          -3.4107    1.3305    0.8457 H       1  UNL1        0.0377
     28 H          -3.3732    1.2642   -0.9347 H       1  UNL1        0.0377
     29 H           6.8721    0.9362   -0.8454 H       1  UNL1        0.0230
     30 H           7.6629   -0.4445   -0.0655 H       1  UNL1        0.0230
     31 H           6.8816    0.8005    0.9241 H       1  UNL1        0.0230
     32 H          -6.6227    0.2221   -0.0425 H       1  UNL1        0.2951
@<TRIPOS>BOND
     1     1    12    1
     2     1    32    1
     3     2    12    2
     4     3     4    1
     5     3     5    1
     6     3    13    1
     7     3    14    1
     8     4     6    1
     9     4    15    1
    10     4    16    1
    11     5     7    1
    12     5    17    1
    13     5    18    1
    14     6     8    1
    15     6    19    1
    16     6    20    1
    17     7     9    1
    18     7    21    1
    19     7    22    1
    20     8    10    1
    21     8    23    1
    22     8    24    1
    23     9    11    1
    24     9    25    1
    25     9    26    1
    26    10    12    1
    27    10    27    1
    28    10    28    1
    29    11    29    1
    30    11    30    1
    31    11    31    1
