@<TRIPOS>MOLECULE
dha_c22_6
 56 55 0 0 0
SMALL
GASTEIGER

@<TRIPOS>ATOM
      1 O          -3.3950   -1.4509    1.3010 O.3     1  UNL1       -0.4806
      2 O          -4.6390   -2.6325   -0.1892 O.2     1  UNL1       -0.2510
      3 C          -2.7398   -0.4666   -1.7205 C.3     1  UNL1       -0.0247
      4 C          -0.4045    1.6390   -1.8489 C.3     1  UNL1       -0.0165
      5 C          -1.3045    2.0927    0.9781 C.3     1  UNL1       -0.0165
      6 C           1.0375    0.8212    2.3842 C.3     1  UNL1       -0.0165
      7 C          -3.9313   -0.3955   -0.7693 C.3     1  UNL1        0.0482
      8 C          -2.6563    0.7361   -2.6177 C.2     1  UNL1       -0.0871
      9 C           0.5361   -1.9697    0.9573 C.3     1  UNL1       -0.0165
     10 C          -1.6605    1.6347   -2.6709 C.2     1  UNL1       -0.0842
     11 C          -0.2252    2.9370   -1.1186 C.2     1  UNL1       -0.0839
     12 C          -0.6272    3.1408    0.1452 C.2     1  UNL1       -0.0839
     13 C          -1.0073    2.2749    2.4381 C.2     1  UNL1       -0.0839
     14 C           2.3566   -1.2961   -1.5586 C.3     1  UNL1       -0.0165
     15 C           0.0361    1.7077    3.0621 C.2     1  UNL1       -0.0839
     16 C           1.0833   -0.5459    3.0001 C.2     1  UNL1       -0.0839
     17 C           0.8719   -1.7274    2.3998 C.2     1  UNL1       -0.0839
     18 C           1.5575   -2.8527    0.2988 C.2     1  UNL1       -0.0839
     19 C           2.3205   -2.5714   -0.7689 C.2     1  UNL1       -0.0839
     20 C           3.7293   -1.0331   -2.1069 C.2     1  UNL1       -0.0842
     21 C           4.4815    0.2468   -0.0893 C.3     1  UNL1       -0.0376
     22 C           4.6771   -0.3455   -1.4529 C.2     1  UNL1       -0.0879
     23 C          -4.0409   -1.6102    0.1192 C.2     1  UNL1        0.3050
     24 C           3.9441    1.6667   -0.1719 C.3     1  UNL1       -0.0618
     25 H          -1.8259   -0.6269   -1.1428 H       1  UNL1        0.0312
     26 H          -2.8406   -1.3560   -2.3558 H       1  UNL1        0.0312
     27 H           0.4423    1.5382   -2.5413 H       1  UNL1        0.0350
     28 H          -0.3098    0.7764   -1.1905 H       1  UNL1        0.0350
     29 H          -2.3881    2.2227    0.8587 H       1  UNL1        0.0350
     30 H          -1.1040    1.0647    0.6731 H       1  UNL1        0.0350
     31 H           2.0249    1.2766    2.5377 H       1  UNL1        0.0350
     32 H           0.9208    0.7810    1.3012 H       1  UNL1        0.0350
     33 H          -4.8726   -0.3089   -1.3265 H       1  UNL1        0.0380
     34 H          -3.8763    0.4970   -0.1349 H       1  UNL1        0.0380
     35 H          -3.4939    0.8763   -3.2987 H       1  UNL1        0.0569
     36 H          -0.4304   -2.4877    0.9195 H       1  UNL1        0.0350
     37 H           0.3906   -1.0423    0.4022 H       1  UNL1        0.0350
     38 H          -1.7571    2.4382   -3.3998 H       1  UNL1        0.0572
     39 H           0.2285    3.7618   -1.6624 H       1  UNL1        0.0572
     40 H          -0.4968    4.1336    0.5698 H       1  UNL1        0.0572
     41 H          -1.6699    2.9204    3.0093 H       1  UNL1        0.0572
     42 H           1.9966   -0.4449   -0.9752 H       1  UNL1        0.0350
     43 H           1.6709   -1.3921   -2.4096 H       1  UNL1        0.0350
     44 H           0.1799    1.9131    4.1203 H       1  UNL1        0.0572
     45 H           1.3264   -0.5740    4.0620 H       1  UNL1        0.0572
     46 H           0.9411   -2.6167    3.0252 H       1  UNL1        0.0572
     47 H           1.6570   -3.8513    0.7233 H       1  UNL1        0.0572
     48 H           2.9623   -3.3763   -1.1272 H       1  UNL1        0.0572
     49 H           3.9611   -1.4350   -3.0901 H       1  UNL1        0.0572
     50 H           3.8204   -0.3651    0.5331 H       1  UNL1        0.0305
     51 H           5.4497    0.2543    0.4255 H       1  UNL1        0.0305
     52 H           5.6408   -0.1943   -1.9316 H       1  UNL1        0.0569
     53 H           2.9561    1.7006   -0.6418 H       1  UNL1        0.0233
     54 H           4.6162    2.3108   -0.7493 H       1  UNL1        0.0233
     55 H           3.8525    2.0933    0.8320 H       1  UNL1        0.0233
     56 H          -3.4663   -2.2480    1.8683 H       1  UNL1        0.2951
@<TRIPOS>BOND
     1     1    23    1
     2     1    56    1
     3     2    23    2
     4     3     7    1
     5     3     8    1
     6     3    25    1
     7     3    26    1
     8     4    10    1
     9     4    11    1
    10     4    27    1
    11     4    28    1
    12     5    12    1
    13     5    13    1
    14     5    29    1
    15     5    30    1
    16     6    15    1
    17     6    16    1
    18     6    31    1
    19     6    32    1
    20     7    23    1
    21     7    33    1
    22     7    34    1
    23     8    10    2
    24     8    35    1
    25     9    17    1
    26     9    18    1
    27     9    36    1
    28     9    37    1
    29    10    38    1
    30    11    12    2
    31    11    39    1
    32    12    40    1
    33    13    15    2
    34    13    41    1
    35    14    19    1
    36    14    20    1
    37    14    42    1
    38    14    43    1
    39    15    44    1
    40    16    17    2
    41    16    45    1
    42    17    46    1
    43    18    19    2
    44    18    47    1
    45    19    48    1
    46    20    22    2
    47    20    49    1
    48    21    22    1
    49    21    24    1
    50    21    50    1
    51    21    51    1
    52    22    52    1
    53    24    53    1
    54    24    54    1
    55    24    55    1
