@<TRIPOS>MOLECULE
elaidic_acid_c18_1_trans
 54 53 0 0 0
SMALL
GASTEIGER

@<TRIPOS>ATOM
      1 O          -6.3094   -0.9359   -1.3357 O.3     1  UNL1       -0.4806
      2 O          -6.1506    0.3643    0.5250 O.2     1  UNL1       -0.2510
      3 C           2.5736   -2.0952   -0.4352 C.3     1  UNL1       -0.0530
      4 C           2.8753   -1.2849   -1.6976 C.3     1  UNL1       -0.0528
      5 C           1.1443   -2.6456   -0.3936 C.3     1  UNL1       -0.0531
      6 C           0.3128    2.1103    0.0609 C.3     1  UNL1       -0.0528
      7 C          -1.1370    1.9513    0.5234 C.3     1  UNL1       -0.0530
      8 C           4.3285   -0.8007   -1.7726 C.3     1  UNL1       -0.0496
      9 C           1.1232    2.9473    1.0554 C.3     1  UNL1       -0.0496
     10 C          -1.9408    1.0884   -0.4517 C.3     1  UNL1       -0.0526
     11 C           0.8080   -3.5378    0.8057 C.3     1  UNL1       -0.0533
     12 C           4.7867    0.0956   -0.6158 C.3     1  UNL1       -0.0348
     13 C           2.5761    3.1547    0.6172 C.3     1  UNL1       -0.0348
     14 C          -3.3828    0.9035    0.0311 C.3     1  UNL1       -0.0430
     15 C           0.8975   -2.8676    2.1782 C.3     1  UNL1       -0.0559
     16 C           4.0163    1.3813   -0.5285 C.2     1  UNL1       -0.0879
     17 C           3.3472    1.8695    0.5273 C.2     1  UNL1       -0.0879
     18 C          -4.2205    0.0679   -0.9368 C.3     1  UNL1        0.0448
     19 C          -0.0014   -1.6499    2.3222 C.3     1  UNL1       -0.0653
     20 C          -5.6470   -0.1167   -0.4789 C.2     1  UNL1        0.3047
     21 H           2.7280   -1.4666    0.4477 H       1  UNL1        0.0265
     22 H           3.2809   -2.9303   -0.3629 H       1  UNL1        0.0265
     23 H           2.6740   -1.9056   -2.5794 H       1  UNL1        0.0265
     24 H           2.1918   -0.4298   -1.7579 H       1  UNL1        0.0265
     25 H           0.4332   -1.8130   -0.4474 H       1  UNL1        0.0265
     26 H           0.9781   -3.2385   -1.3025 H       1  UNL1        0.0265
     27 H           0.7621    1.1169   -0.0510 H       1  UNL1        0.0265
     28 H           0.3343    2.5887   -0.9257 H       1  UNL1        0.0265
     29 H          -1.1557    1.4923    1.5194 H       1  UNL1        0.0265
     30 H          -1.6053    2.9389    0.6136 H       1  UNL1        0.0265
     31 H           4.4669   -0.2663   -2.7213 H       1  UNL1        0.0268
     32 H           4.9900   -1.6752   -1.8141 H       1  UNL1        0.0268
     33 H           1.1008    2.4681    2.0424 H       1  UNL1        0.0268
     34 H           0.6507    3.9306    1.1708 H       1  UNL1        0.0268
     35 H          -1.4635    0.1067   -0.5574 H       1  UNL1        0.0265
     36 H          -1.9419    1.5573   -1.4430 H       1  UNL1        0.0265
     37 H          -0.2089   -3.9271    0.6704 H       1  UNL1        0.0265
     38 H           1.4750   -4.4087    0.7987 H       1  UNL1        0.0265
     39 H           5.8424    0.3483   -0.7745 H       1  UNL1        0.0307
     40 H           4.7443   -0.4501    0.3331 H       1  UNL1        0.0307
     41 H           3.0751    3.8038    1.3465 H       1  UNL1        0.0307
     42 H           2.5977    3.6823   -0.3439 H       1  UNL1        0.0307
     43 H          -3.8534    1.8860    0.1633 H       1  UNL1        0.0270
     44 H          -3.3807    0.4242    1.0184 H       1  UNL1        0.0270
     45 H           0.6162   -3.6036    2.9410 H       1  UNL1        0.0263
     46 H           1.9335   -2.5812    2.3906 H       1  UNL1        0.0263
     47 H           4.0176    1.9806   -1.4379 H       1  UNL1        0.0569
     48 H           3.3597    1.2772    1.4413 H       1  UNL1        0.0569
     49 H          -4.2420    0.5542   -1.9185 H       1  UNL1        0.0377
     50 H          -3.7669   -0.9241   -1.0438 H       1  UNL1        0.0377
     51 H          -1.0386   -1.8926    2.0709 H       1  UNL1        0.0230
     52 H           0.0214   -1.2857    3.3543 H       1  UNL1        0.0230
     53 H           0.3297   -0.8311    1.6773 H       1  UNL1        0.0230
     54 H          -7.2374   -1.0852   -1.0548 H       1  UNL1        0.2951
@<TRIPOS>BOND
     1     1    20    1
     2     1    54    1
     3     2    20    2
     4     3     4    1
     5     3     5    1
     6     3    21    1
     7     3    22    1
     8     4     8    1
     9     4    23    1
    10     4    24    1
    11     5    11    1
    12     5    25    1
    13     5    26    1
    14     6     7    1
    15     6     9    1
    16     6    27    1
    17     6    28    1
    18     7    10    1
    19     7    29    1
    20     7    30    1
    21     8    12    1
    22     8    31    1
    23     8    32    1
    24     9    13    1
    25     9    33    1
    26     9    34    1
    27    10    14    1
    28    10    35    1
    29    10    36    1
    30    11    15    1
    31    11    37    1
    32    11    38    1
    33    12    16    1
    34    12    39    1
    35    12    40    1
    36    13    17    1
    37    13    41    1
    38    13    42    1
    39    14    18    1
    40    14    43    1
    41    14    44    1
    42    15    19    1
    43    15    45    1
    44    15    46    1
    45    16    17    2
    46    16    47    1
    47    17    48    1
    48    18    20    1
    49    18    49    1
    50    18    50    1
    51    19    51    1
    52    19    52    1
    53    19    53    1
