@<TRIPOS>MOLECULE
epa_c20_5
 52 51 0 0 0
SMALL
GASTEIGER

@<TRIPOS>ATOM
      1 O          -1.5252   -0.1012   -2.0726 O.3     1  UNL1       -0.4806
      2 O          -1.8906   -2.2720   -2.6571 O.2     1  UNL1       -0.2510
      3 C          -0.1819   -3.2599   -0.6333 C.3     1  UNL1       -0.0395
      4 C           0.7474   -3.6295    0.5296 C.3     1  UNL1       -0.0343
      5 C          -0.3754   -1.7584   -0.8423 C.3     1  UNL1        0.0451
      6 C           2.1471   -3.1220    0.3419 C.2     1  UNL1       -0.0876
      7 C           4.1593   -1.7899    1.0289 C.3     1  UNL1       -0.0165
      8 C           2.7744   -2.3326    1.2262 C.2     1  UNL1       -0.0842
      9 C           4.1551   -0.2891    1.0372 C.2     1  UNL1       -0.0839
     10 C           3.9694    1.9660   -0.0365 C.3     1  UNL1       -0.0165
     11 C          -1.3373   -1.4380   -1.9546 C.2     1  UNL1        0.3047
     12 C           4.0001    0.4656   -0.0611 C.2     1  UNL1       -0.0839
     13 C           0.5859    3.8283   -0.6298 C.3     1  UNL1       -0.0165
     14 C           2.7057    2.4942   -0.6486 C.2     1  UNL1       -0.0839
     15 C          -2.9131    2.5519    0.7278 C.3     1  UNL1       -0.0165
     16 C           1.8537    3.3137   -0.0142 C.2     1  UNL1       -0.0839
     17 C          -0.6057    3.5194    0.2290 C.2     1  UNL1       -0.0839
     18 C          -1.7201    2.8622   -0.1291 C.2     1  UNL1       -0.0839
     19 C          -3.0795    1.0727    0.9203 C.2     1  UNL1       -0.0842
     20 C          -4.3709   -1.0736    0.8088 C.3     1  UNL1       -0.0376
     21 C          -4.2076    0.4065    0.6329 C.2     1  UNL1       -0.0879
     22 C          -4.8910   -1.4143    2.1963 C.3     1  UNL1       -0.0618
     23 H           0.1994   -3.7085   -1.5603 H       1  UNL1        0.0273
     24 H          -1.1593   -3.7260   -0.4525 H       1  UNL1        0.0273
     25 H           0.3168   -3.2571    1.4671 H       1  UNL1        0.0307
     26 H           0.7874   -4.7222    0.6136 H       1  UNL1        0.0307
     27 H           0.5815   -1.2854   -1.0887 H       1  UNL1        0.0378
     28 H          -0.7618   -1.3115    0.0803 H       1  UNL1        0.0378
     29 H           2.6584   -3.4142   -0.5719 H       1  UNL1        0.0569
     30 H           4.8075   -2.1490    1.8366 H       1  UNL1        0.0350
     31 H           4.5990   -2.1604    0.0945 H       1  UNL1        0.0350
     32 H           2.2625   -2.0524    2.1443 H       1  UNL1        0.0572
     33 H           4.2500    0.1930    2.0074 H       1  UNL1        0.0572
     34 H           4.8190    2.3385   -0.6212 H       1  UNL1        0.0350
     35 H           4.0998    2.3456    0.9842 H       1  UNL1        0.0350
     36 H           3.9020   -0.0204   -1.0293 H       1  UNL1        0.0572
     37 H           0.4447    3.4254   -1.6399 H       1  UNL1        0.0350
     38 H           0.6667    4.9170   -0.7305 H       1  UNL1        0.0350
     39 H           2.4859    2.1882   -1.6692 H       1  UNL1        0.0572
     40 H          -2.8033    3.0187    1.7139 H       1  UNL1        0.0350
     41 H          -3.8022    2.9954    0.2642 H       1  UNL1        0.0350
     42 H           2.0833    3.6388    0.9982 H       1  UNL1        0.0572
     43 H          -0.5521    3.8874    1.2533 H       1  UNL1        0.0572
     44 H          -1.7858    2.5146   -1.1590 H       1  UNL1        0.0572
     45 H          -2.2310    0.5260    1.3260 H       1  UNL1        0.0572
     46 H          -5.0610   -1.4507    0.0457 H       1  UNL1        0.0305
     47 H          -3.4149   -1.5849    0.6448 H       1  UNL1        0.0305
     48 H          -5.0669    0.9493    0.2474 H       1  UNL1        0.0569
     49 H          -5.8608   -0.9407    2.3830 H       1  UNL1        0.0233
     50 H          -4.1947   -1.0847    2.9749 H       1  UNL1        0.0233
     51 H          -5.0191   -2.4969    2.2955 H       1  UNL1        0.0233
     52 H          -2.1583    0.1190   -2.7887 H       1  UNL1        0.2951
@<TRIPOS>BOND
     1     1    11    1
     2     1    52    1
     3     2    11    2
     4     3     4    1
     5     3     5    1
     6     3    23    1
     7     3    24    1
     8     4     6    1
     9     4    25    1
    10     4    26    1
    11     5    11    1
    12     5    27    1
    13     5    28    1
    14     6     8    2
    15     6    29    1
    16     7     8    1
    17     7     9    1
    18     7    30    1
    19     7    31    1
    20     8    32    1
    21     9    12    2
    22     9    33    1
    23    10    12    1
    24    10    14    1
    25    10    34    1
    26    10    35    1
    27    12    36    1
    28    13    16    1
    29    13    17    1
    30    13    37    1
    31    13    38    1
    32    14    16    2
    33    14    39    1
    34    15    18    1
    35    15    19    1
    36    15    40    1
    37    15    41    1
    38    16    42    1
    39    17    18    2
    40    17    43    1
    41    18    44    1
    42    19    21    2
    43    19    45    1
    44    20    21    1
    45    20    22    1
    46    20    46    1
    47    20    47    1
    48    21    48    1
    49    22    49    1
    50    22    50    1
    51    22    51    1
