@<TRIPOS>MOLECULE
gamma_linolenic_acid_c18_3
 50 49 0 0 0
SMALL
GASTEIGER

@<TRIPOS>ATOM
      1 O          -5.2893   -1.4106    0.2851 O.3     1  UNL1       -0.4806
      2 O          -4.6281    0.2709    1.6696 O.2     1  UNL1       -0.2510
      3 C           1.9819   -2.0959    0.4628 C.3     1  UNL1       -0.0496
      4 C           1.1126   -2.7558   -0.6100 C.3     1  UNL1       -0.0530
      5 C           1.1661   -1.7718    1.7169 C.3     1  UNL1       -0.0348
      6 C          -1.5625    1.3387   -1.2255 C.3     1  UNL1       -0.0491
      7 C           1.8970   -3.1659   -1.8581 C.3     1  UNL1       -0.0559
      8 C          -2.5744    1.0786   -0.1059 C.3     1  UNL1       -0.0427
      9 C          -0.6566    2.5467   -0.9652 C.3     1  UNL1       -0.0347
     10 C          -3.4688   -0.1148   -0.4394 C.3     1  UNL1        0.0448
     11 C           2.0306   -1.1604    2.7809 C.2     1  UNL1       -0.0876
     12 C           1.0556   -3.8881   -2.8987 C.3     1  UNL1       -0.0653
     13 C           0.3130    2.8044   -2.0814 C.2     1  UNL1       -0.0876
     14 C           2.2531    0.1571    2.8961 C.2     1  UNL1       -0.0842
     15 C           1.6662    1.1878    1.9759 C.3     1  UNL1       -0.0165
     16 C           1.5218    2.2294   -2.1678 C.2     1  UNL1       -0.0842
     17 C           2.0485    1.2571   -1.1543 C.3     1  UNL1       -0.0165
     18 C           2.7335    1.9129    1.2081 C.2     1  UNL1       -0.0839
     19 C           2.8955    1.9456   -0.1244 C.2     1  UNL1       -0.0839
     20 C          -4.4958   -0.3661    0.6356 C.2     1  UNL1        0.3047
     21 H           2.7986   -2.7796    0.7291 H       1  UNL1        0.0268
     22 H           2.4532   -1.1966    0.0593 H       1  UNL1        0.0268
     23 H           0.3090   -2.0674   -0.9001 H       1  UNL1        0.0265
     24 H           0.6300   -3.6451   -0.1857 H       1  UNL1        0.0265
     25 H           0.2973   -1.1527    1.4729 H       1  UNL1        0.0307
     26 H           0.7453   -2.7000    2.1253 H       1  UNL1        0.0307
     27 H          -0.9536    0.4379   -1.3692 H       1  UNL1        0.0268
     28 H          -2.1052    1.4977   -2.1667 H       1  UNL1        0.0268
     29 H           2.3404   -2.2734   -2.3156 H       1  UNL1        0.0263
     30 H           2.7284   -3.8185   -1.5660 H       1  UNL1        0.0263
     31 H          -3.1901    1.9733    0.0481 H       1  UNL1        0.0270
     32 H          -2.0425    0.8940    0.8357 H       1  UNL1        0.0270
     33 H          -1.2792    3.4435   -0.8510 H       1  UNL1        0.0307
     34 H          -0.1415    2.4363   -0.0068 H       1  UNL1        0.0307
     35 H          -3.9990    0.0723   -1.3800 H       1  UNL1        0.0377
     36 H          -2.8572   -1.0176   -0.5470 H       1  UNL1        0.0377
     37 H           2.5097   -1.8359    3.4846 H       1  UNL1        0.0569
     38 H           0.6307   -4.8087   -2.4865 H       1  UNL1        0.0230
     39 H           0.2326   -3.2536   -3.2423 H       1  UNL1        0.0230
     40 H           1.6677   -4.1532   -3.7663 H       1  UNL1        0.0230
     41 H           0.0022    3.4904   -2.8648 H       1  UNL1        0.0569
     42 H           2.8961    0.5071    3.7001 H       1  UNL1        0.0572
     43 H           0.8932    0.7907    1.3213 H       1  UNL1        0.0350
     44 H           1.1483    1.9281    2.5997 H       1  UNL1        0.0350
     45 H           2.1634    2.4802   -3.0086 H       1  UNL1        0.0572
     46 H           1.2454    0.6613   -0.7199 H       1  UNL1        0.0350
     47 H           2.6808    0.5353   -1.6870 H       1  UNL1        0.0350
     48 H           3.4479    2.4766    1.8068 H       1  UNL1        0.0572
     49 H           3.7404    2.5173   -0.5062 H       1  UNL1        0.0572
     50 H          -5.9745   -1.5930    0.9630 H       1  UNL1        0.2951
@<TRIPOS>BOND
     1     1    20    1
     2     1    50    1
     3     2    20    2
     4     3     4    1
     5     3     5    1
     6     3    21    1
     7     3    22    1
     8     4     7    1
     9     4    23    1
    10     4    24    1
    11     5    11    1
    12     5    25    1
    13     5    26    1
    14     6     8    1
    15     6     9    1
    16     6    27    1
    17     6    28    1
    18     7    12    1
    19     7    29    1
    20     7    30    1
    21     8    10    1
    22     8    31    1
    23     8    32    1
    24     9    13    1
    25     9    33    1
    26     9    34    1
    27    10    20    1
    28    10    35    1
    29    10    36    1
    30    11    14    2
    31    11    37    1
    32    12    38    1
    33    12    39    1
    34    12    40    1
    35    13    16    2
    36    13    41    1
    37    14    15    1
    38    14    42    1
    39    15    18    1
    40    15    43    1
    41    15    44    1
    42    16    17    1
    43    16    45    1
    44    17    19    1
    45    17    46    1
    46    17    47    1
    47    18    19    2
    48    18    48    1
    49    19    49    1
