@<TRIPOS>MOLECULE
lauric_acid_c12
 38 37 0 0 0
SMALL
GASTEIGER

@<TRIPOS>ATOM
      1 O          -7.0213    0.6218    0.0280 O.3     1  UNL1       -0.4806
      2 O          -5.9285   -1.3708    0.0651 O.2     1  UNL1       -0.2510
      3 C           1.6986   -0.3981   -0.0603 C.3     1  UNL1       -0.0531
      4 C           0.4623    0.5029   -0.0216 C.3     1  UNL1       -0.0531
      5 C           2.9876    0.4275   -0.0211 C.3     1  UNL1       -0.0531
      6 C          -0.8577   -0.2736   -0.0357 C.3     1  UNL1       -0.0530
      7 C           4.2232   -0.4748   -0.0217 C.3     1  UNL1       -0.0531
      8 C          -2.0943    0.6286   -0.0220 C.3     1  UNL1       -0.0526
      9 C           5.5433    0.2988    0.0482 C.3     1  UNL1       -0.0533
     10 C          -3.3834   -0.1996   -0.0486 C.3     1  UNL1       -0.0430
     11 C           6.8157   -0.5481   -0.0339 C.3     1  UNL1       -0.0559
     12 C          -4.6367    0.6695   -0.0016 C.3     1  UNL1        0.0448
     13 C           8.0955    0.2632    0.0932 C.3     1  UNL1       -0.0653
     14 C          -5.9042   -0.1474    0.0321 C.2     1  UNL1        0.3047
     15 H           1.6789   -1.0103   -0.9699 H       1  UNL1        0.0265
     16 H           1.6747   -1.0856    0.7938 H       1  UNL1        0.0265
     17 H           0.4974    1.1286    0.8789 H       1  UNL1        0.0265
     18 H           0.4860    1.1842   -0.8813 H       1  UNL1        0.0265
     19 H           2.9960    1.0554    0.8780 H       1  UNL1        0.0265
     20 H           3.0228    1.1002   -0.8865 H       1  UNL1        0.0265
     21 H          -0.8876   -0.9432    0.8329 H       1  UNL1        0.0265
     22 H          -0.8866   -0.9112   -0.9280 H       1  UNL1        0.0265
     23 H           4.1726   -1.1663    0.8284 H       1  UNL1        0.0265
     24 H           4.2189   -1.0899   -0.9301 H       1  UNL1        0.0265
     25 H          -2.0710    1.2997   -0.8889 H       1  UNL1        0.0265
     26 H          -2.0782    1.2574    0.8762 H       1  UNL1        0.0265
     27 H           5.5634    1.0347   -0.7658 H       1  UNL1        0.0265
     28 H           5.5611    0.8734    0.9831 H       1  UNL1        0.0265
     29 H          -3.3863   -0.8906    0.8041 H       1  UNL1        0.0270
     30 H          -3.4023   -0.8210   -0.9529 H       1  UNL1        0.0270
     31 H           6.7964   -1.3046    0.7594 H       1  UNL1        0.0263
     32 H           6.8287   -1.0886   -0.9877 H       1  UNL1        0.0263
     33 H          -4.6185    1.2980    0.8957 H       1  UNL1        0.0377
     34 H          -4.6699    1.3151   -0.8861 H       1  UNL1        0.0377
     35 H           8.1657    1.0084   -0.7054 H       1  UNL1        0.0230
     36 H           8.1327    0.7853    1.0546 H       1  UNL1        0.0230
     37 H           8.9696   -0.3920    0.0268 H       1  UNL1        0.0230
     38 H          -7.8388    0.0803    0.0528 H       1  UNL1        0.2951
@<TRIPOS>BOND
     1     1    14    1
     2     1    38    1
     3     2    14    2
     4     3     4    1
     5     3     5    1
     6     3    15    1
     7     3    16    1
     8     4     6    1
     9     4    17    1
    10     4    18    1
    11     5     7    1
    12     5    19    1
    13     5    20    1
    14     6     8    1
    15     6    21    1
    16     6    22    1
    17     7     9    1
    18     7    23    1
    19     7    24    1
    20     8    10    1
    21     8    25    1
    22     8    26    1
    23     9    11    1
    24     9    27    1
    25     9    28    1
    26    10    12    1
    27    10    29    1
    28    10    30    1
    29    11    13    1
    30    11    31    1
    31    11    32    1
    32    12    14    1
    33    12    33    1
    34    12    34    1
    35    13    35    1
    36    13    36    1
    37    13    37    1
