@<TRIPOS>MOLECULE
leukotriene_b4
 56 55 0 0 0
SMALL
GASTEIGER

@<TRIPOS>ATOM
      1 O           6.0865    1.5492   -0.9978 O.3     1  UNL1       -0.3878
      2 O          -3.2325    4.1097   -0.6381 O.3     1  UNL1       -0.3875
      3 O           2.1438   -4.5197    0.0602 O.3     1  UNL1       -0.4806
      4 O           1.0879   -2.5438    0.4258 O.2     1  UNL1       -0.2510
      5 C          -4.3553   -1.6440    0.4705 C.3     1  UNL1       -0.0496
      6 C          -3.2825   -2.6810    0.8268 C.3     1  UNL1       -0.0530
      7 C          -4.0263   -0.6922   -0.6861 C.3     1  UNL1       -0.0348
      8 C           4.7591   -0.4213   -0.6633 C.3     1  UNL1       -0.0227
      9 C          -3.0155   -3.7493   -0.2363 C.3     1  UNL1       -0.0559
     10 C           3.3946   -1.0185   -0.2972 C.3     1  UNL1       -0.0404
     11 C           4.7827    1.1149   -0.6004 C.3     1  UNL1        0.0737
     12 C          -5.0700    0.3650   -0.9045 C.2     1  UNL1       -0.0878
     13 C           3.3874   -2.5459   -0.3794 C.3     1  UNL1        0.0449
     14 C          -3.8689    2.0743    0.4846 C.3     1  UNL1       -0.0050
     15 C          -2.0792   -4.8622    0.1977 C.3     1  UNL1       -0.0653
     16 C          -4.9992    1.5984   -0.3822 C.2     1  UNL1       -0.0852
     17 C          -2.7735    2.7977   -0.3122 C.3     1  UNL1        0.0770
     18 C           4.4897    1.7885    0.7147 C.2     1  UNL1       -0.0559
     19 C          -1.4989    2.9474    0.4713 C.2     1  UNL1       -0.0556
     20 C           2.0815   -3.1622    0.0709 C.2     1  UNL1        0.3047
     21 C           3.3058    2.2464    1.1496 C.2     1  UNL1       -0.0633
     22 C          -0.3125    2.4918    0.0418 C.2     1  UNL1       -0.0633
     23 C           2.0889    2.1492    0.3735 C.2     1  UNL1       -0.0620
     24 C           0.9062    2.6076    0.8102 C.2     1  UNL1       -0.0620
     25 H          -5.2946   -2.1676    0.2498 H       1  UNL1        0.0268
     26 H          -4.5463   -1.0473    1.3723 H       1  UNL1        0.0268
     27 H          -3.5966   -3.1835    1.7506 H       1  UNL1        0.0265
     28 H          -2.3442   -2.1627    1.0604 H       1  UNL1        0.0265
     29 H          -3.0334   -0.2545   -0.5345 H       1  UNL1        0.0307
     30 H          -3.9426   -1.2699   -1.6152 H       1  UNL1        0.0307
     31 H           5.5299   -0.8221    0.0081 H       1  UNL1        0.0293
     32 H           5.0494   -0.7439   -1.6715 H       1  UNL1        0.0293
     33 H          -3.9693   -4.1983   -0.5390 H       1  UNL1        0.0263
     34 H          -2.5974   -3.2705   -1.1295 H       1  UNL1        0.0263
     35 H           2.6246   -0.6224   -0.9695 H       1  UNL1        0.0271
     36 H           3.1178   -0.7219    0.7209 H       1  UNL1        0.0271
     37 H           4.1123    1.4915   -1.3804 H       1  UNL1        0.0638
     38 H          -5.9306    0.1005   -1.5128 H       1  UNL1        0.0569
     39 H           3.5726   -2.8600   -1.4126 H       1  UNL1        0.0377
     40 H           4.1824   -2.9473    0.2594 H       1  UNL1        0.0377
     41 H          -4.2967    2.7549    1.2331 H       1  UNL1        0.0335
     42 H          -3.4414    1.2415    1.0551 H       1  UNL1        0.0335
     43 H          -2.4921   -5.4076    1.0521 H       1  UNL1        0.0230
     44 H          -1.9254   -5.5736   -0.6195 H       1  UNL1        0.0230
     45 H          -1.1049   -4.4590    0.4884 H       1  UNL1        0.0230
     46 H          -5.7964    2.3048   -0.5978 H       1  UNL1        0.0570
     47 H          -2.5746    2.2753   -1.2562 H       1  UNL1        0.0641
     48 H           5.3333    1.8858    1.3972 H       1  UNL1        0.0597
     49 H          -1.5712    3.4486    1.4344 H       1  UNL1        0.0598
     50 H           6.0687    2.5190   -1.0728 H       1  UNL1        0.2102
     51 H           3.2476    2.7020    2.1344 H       1  UNL1        0.0615
     52 H          -0.2481    1.9937   -0.9225 H       1  UNL1        0.0615
     53 H           2.1310    1.6838   -0.6055 H       1  UNL1        0.0617
     54 H          -4.0070    4.0168   -1.2185 H       1  UNL1        0.2102
     55 H           0.8334    3.0822    1.7861 H       1  UNL1        0.0617
     56 H           1.3048   -4.9274    0.3631 H       1  UNL1        0.2951
@<TRIPOS>BOND
     1     1    11    1
     2     1    50    1
     3     2    17    1
     4     2    54    1
     5     3    20    1
     6     3    56    1
     7     4    20    2
     8     5     6    1
     9     5     7    1
    10     5    25    1
    11     5    26    1
    12     6     9    1
    13     6    27    1
    14     6    28    1
    15     7    12    1
    16     7    29    1
    17     7    30    1
    18     8    10    1
    19     8    11    1
    20     8    31    1
    21     8    32    1
    22     9    15    1
    23     9    33    1
    24     9    34    1
    25    10    13    1
    26    10    35    1
    27    10    36    1
    28    11    18    1
    29    11    37    1
    30    12    16    2
    31    12    38    1
    32    13    20    1
    33    13    39    1
    34    13    40    1
    35    14    16    1
    36    14    17    1
    37    14    41    1
    38    14    42    1
    39    15    43    1
    40    15    44    1
    41    15    45    1
    42    16    46    1
    43    17    19    1
    44    17    47    1
    45    18    21    2
    46    18    48    1
    47    19    22    2
    48    19    49    1
    49    21    23    1
    50    21    51    1
    51    22    24    1
    52    22    52    1
    53    23    24    2
    54    23    53    1
    55    24    55    1
