@<TRIPOS>MOLECULE
linoleic_acid_c18_2
 52 51 0 0 0
SMALL
GASTEIGER

@<TRIPOS>ATOM
      1 O          -7.1640    0.1939    0.8917 O.3     1  UNL1       -0.4806
      2 O          -5.9910   -0.7625   -0.8072 O.2     1  UNL1       -0.2510
      3 C          -1.1817    1.3128   -0.3419 C.3     1  UNL1       -0.0530
      4 C          -0.0074    2.1518    0.1723 C.3     1  UNL1       -0.0528
      5 C          -2.4780    1.5406    0.4399 C.3     1  UNL1       -0.0526
      6 C           1.2956    1.9047   -0.5956 C.3     1  UNL1       -0.0496
      7 C          -3.6146    0.6702   -0.1077 C.3     1  UNL1       -0.0430
      8 C           2.4561    2.7876   -0.1225 C.3     1  UNL1       -0.0348
      9 C          -4.9162    0.8502    0.6735 C.3     1  UNL1        0.0448
     10 C           2.3121   -2.2797   -0.2945 C.3     1  UNL1       -0.0496
     11 C           0.8799   -2.6178    0.1306 C.3     1  UNL1       -0.0530
     12 C           3.7369    2.5259   -0.8615 C.2     1  UNL1       -0.0876
     13 C           3.2196   -2.0881    0.9267 C.3     1  UNL1       -0.0348
     14 C          -0.0554   -2.8878   -1.0501 C.3     1  UNL1       -0.0559
     15 C           4.6379    1.6049   -0.4884 C.2     1  UNL1       -0.0842
     16 C           4.4770    0.7218    0.7144 C.3     1  UNL1       -0.0165
     17 C           4.6669   -1.7770    0.6541 C.2     1  UNL1       -0.0876
     18 C          -6.0486    0.0065    0.1406 C.2     1  UNL1        0.3047
     19 C           5.2355   -0.5651    0.5576 C.2     1  UNL1       -0.0842
     20 C          -1.4605   -3.2928   -0.6321 C.3     1  UNL1       -0.0653
     21 H          -1.3513    1.5445   -1.4007 H       1  UNL1        0.0265
     22 H          -0.9111    0.2512   -0.2897 H       1  UNL1        0.0265
     23 H          -0.2702    3.2146    0.1043 H       1  UNL1        0.0265
     24 H           0.1559    1.9320    1.2345 H       1  UNL1        0.0265
     25 H          -2.3129    1.3061    1.4983 H       1  UNL1        0.0265
     26 H          -2.7626    2.5979    0.3817 H       1  UNL1        0.0265
     27 H           1.1210    2.0841   -1.6643 H       1  UNL1        0.0268
     28 H           1.5652    0.8475   -0.4983 H       1  UNL1        0.0268
     29 H          -3.3171   -0.3852   -0.0763 H       1  UNL1        0.0270
     30 H          -3.7859    0.9135   -1.1639 H       1  UNL1        0.0270
     31 H           2.5978    2.6741    0.9590 H       1  UNL1        0.0307
     32 H           2.1912    3.8424   -0.2691 H       1  UNL1        0.0307
     33 H          -5.2271    1.9001    0.6282 H       1  UNL1        0.0377
     34 H          -4.7526    0.5749    1.7216 H       1  UNL1        0.0377
     35 H           2.3131   -1.3719   -0.9080 H       1  UNL1        0.0268
     36 H           2.7105   -3.0879   -0.9200 H       1  UNL1        0.0268
     37 H           0.8965   -3.5029    0.7789 H       1  UNL1        0.0265
     38 H           0.4744   -1.7937    0.7305 H       1  UNL1        0.0265
     39 H           3.9334    3.1240   -1.7472 H       1  UNL1        0.0569
     40 H           2.7839   -1.3335    1.5914 H       1  UNL1        0.0307
     41 H           3.2033   -3.0129    1.5198 H       1  UNL1        0.0307
     42 H           0.3678   -3.6830   -1.6752 H       1  UNL1        0.0263
     43 H          -0.1150   -1.9896   -1.6762 H       1  UNL1        0.0263
     44 H           5.5505    1.5207   -1.0743 H       1  UNL1        0.0572
     45 H           3.4242    0.5500    0.9409 H       1  UNL1        0.0350
     46 H           4.9058    1.2447    1.5786 H       1  UNL1        0.0350
     47 H           5.3114   -2.6426    0.5117 H       1  UNL1        0.0569
     48 H           6.3044   -0.5057    0.3669 H       1  UNL1        0.0572
     49 H          -1.4420   -4.2190   -0.0492 H       1  UNL1        0.0230
     50 H          -2.0880   -3.4564   -1.5136 H       1  UNL1        0.0230
     51 H          -1.9252   -2.5128   -0.0213 H       1  UNL1        0.0230
     52 H          -7.9139   -0.3540    0.5759 H       1  UNL1        0.2951
@<TRIPOS>BOND
     1     1    18    1
     2     1    52    1
     3     2    18    2
     4     3     4    1
     5     3     5    1
     6     3    21    1
     7     3    22    1
     8     4     6    1
     9     4    23    1
    10     4    24    1
    11     5     7    1
    12     5    25    1
    13     5    26    1
    14     6     8    1
    15     6    27    1
    16     6    28    1
    17     7     9    1
    18     7    29    1
    19     7    30    1
    20     8    12    1
    21     8    31    1
    22     8    32    1
    23     9    18    1
    24     9    33    1
    25     9    34    1
    26    10    11    1
    27    10    13    1
    28    10    35    1
    29    10    36    1
    30    11    14    1
    31    11    37    1
    32    11    38    1
    33    12    15    2
    34    12    39    1
    35    13    17    1
    36    13    40    1
    37    13    41    1
    38    14    20    1
    39    14    42    1
    40    14    43    1
    41    15    16    1
    42    15    44    1
    43    16    19    1
    44    16    45    1
    45    16    46    1
    46    17    19    2
    47    17    47    1
    48    19    48    1
    49    20    49    1
    50    20    50    1
    51    20    51    1
