@<TRIPOS>MOLECULE
myristic_acid_c14
 44 43 0 0 0
SMALL
GASTEIGER

@<TRIPOS>ATOM
      1 O          -8.2750    0.6505    0.0672 O.3     1  UNL1       -0.4806
      2 O          -7.2651   -1.3804   -0.0293 O.2     1  UNL1       -0.2510
      3 C           1.7563    0.4532    0.0787 C.3     1  UNL1       -0.0531
      4 C           0.4700   -0.3743    0.0260 C.3     1  UNL1       -0.0531
      5 C           2.9959   -0.4439    0.0519 C.3     1  UNL1       -0.0531
      6 C          -0.7675    0.5253    0.0206 C.3     1  UNL1       -0.0531
      7 C           4.2806    0.3867    0.0723 C.3     1  UNL1       -0.0531
      8 C          -2.0876   -0.2518    0.0010 C.3     1  UNL1       -0.0530
      9 C           5.5548   -0.4630    0.0787 C.3     1  UNL1       -0.0531
     10 C          -3.3605    0.5959   -0.0903 C.3     1  UNL1       -0.0526
     11 C           6.8738    0.3143    0.0130 C.3     1  UNL1       -0.0533
     12 C          -4.6482   -0.2336   -0.0471 C.3     1  UNL1       -0.0430
     13 C           8.1431   -0.5389   -0.0361 C.3     1  UNL1       -0.0559
     14 C          -5.9037    0.6403   -0.0481 C.3     1  UNL1        0.0448
     15 C           9.4200    0.2795   -0.1464 C.3     1  UNL1       -0.0653
     16 C          -7.1870   -0.1599   -0.0120 C.2     1  UNL1        0.3047
     17 H           1.7638    1.0651    0.9887 H       1  UNL1        0.0265
     18 H           1.7840    1.1416   -0.7747 H       1  UNL1        0.0265
     19 H           0.4693   -1.0012   -0.8738 H       1  UNL1        0.0265
     20 H           0.4301   -1.0480    0.8903 H       1  UNL1        0.0265
     21 H           2.9811   -1.1183    0.9165 H       1  UNL1        0.0265
     22 H           2.9806   -1.0703   -0.8480 H       1  UNL1        0.0265
     23 H          -0.7521    1.1748    0.9044 H       1  UNL1        0.0265
     24 H          -0.7301    1.1838   -0.8561 H       1  UNL1        0.0265
     25 H           4.2835    1.0359    0.9565 H       1  UNL1        0.0265
     26 H           4.2967    1.0462   -0.8043 H       1  UNL1        0.0265
     27 H          -2.0739   -0.9476   -0.8477 H       1  UNL1        0.0265
     28 H          -2.1394   -0.8707    0.9059 H       1  UNL1        0.0265
     29 H           5.5188   -1.1528   -0.7741 H       1  UNL1        0.0265
     30 H           5.5595   -1.0878    0.9806 H       1  UNL1        0.0265
     31 H          -3.3370    1.1834   -1.0162 H       1  UNL1        0.0265
     32 H          -3.3663    1.3129    0.7400 H       1  UNL1        0.0265
     33 H           6.9293    0.9838    0.8807 H       1  UNL1        0.0265
     34 H           6.8516    0.9603   -0.8739 H       1  UNL1        0.0265
     35 H          -4.6475   -0.8643    0.8507 H       1  UNL1        0.0270
     36 H          -4.6718   -0.9152   -0.9064 H       1  UNL1        0.0270
     37 H           8.0862   -1.2222   -0.8916 H       1  UNL1        0.0263
     38 H           8.1946   -1.1615    0.8648 H       1  UNL1        0.0263
     39 H          -5.9200    1.2598   -0.9518 H       1  UNL1        0.0377
     40 H          -5.8909    1.2962    0.8298 H       1  UNL1        0.0377
     41 H           9.5283    0.9508    0.7113 H       1  UNL1        0.0230
     42 H           9.4182    0.8848   -1.0584 H       1  UNL1        0.0230
     43 H          10.2931   -0.3798   -0.1763 H       1  UNL1        0.0230
     44 H          -9.1106    0.1378    0.1014 H       1  UNL1        0.2951
@<TRIPOS>BOND
     1     1    16    1
     2     1    44    1
     3     2    16    2
     4     3     4    1
     5     3     5    1
     6     3    17    1
     7     3    18    1
     8     4     6    1
     9     4    19    1
    10     4    20    1
    11     5     7    1
    12     5    21    1
    13     5    22    1
    14     6     8    1
    15     6    23    1
    16     6    24    1
    17     7     9    1
    18     7    25    1
    19     7    26    1
    20     8    10    1
    21     8    27    1
    22     8    28    1
    23     9    11    1
    24     9    29    1
    25     9    30    1
    26    10    12    1
    27    10    31    1
    28    10    32    1
    29    11    13    1
    30    11    33    1
    31    11    34    1
    32    12    14    1
    33    12    35    1
    34    12    36    1
    35    13    15    1
    36    13    37    1
    37    13    38    1
    38    14    16    1
    39    14    39    1
    40    14    40    1
    41    15    41    1
    42    15    42    1
    43    15    43    1
