@<TRIPOS>MOLECULE
nervonic_acid_c24_1
 72 71 0 0 0
SMALL
GASTEIGER

@<TRIPOS>ATOM
      1 O          -6.0415    4.9941   -5.4028 O.3     1  UNL1       -0.4806
      2 O          -6.1285    4.4713   -7.5625 O.2     1  UNL1       -0.2510
      3 C          -5.3663   -3.2952   -2.9210 C.3     1  UNL1       -0.0531
      4 C          -5.8084   -3.6558   -1.5144 C.3     1  UNL1       -0.0531
      5 C          -5.8647   -1.8900   -3.3035 C.3     1  UNL1       -0.0531
      6 C          -5.3011   -5.0454   -1.1447 C.3     1  UNL1       -0.0531
      7 C          -5.4161   -1.5168   -4.7167 C.3     1  UNL1       -0.0531
      8 C          -5.7405   -5.4105    0.2629 C.3     1  UNL1       -0.0530
      9 C          -5.2395   -6.7970    0.6576 C.3     1  UNL1       -0.0528
     10 C          -5.9089   -0.1223   -5.0860 C.3     1  UNL1       -0.0530
     11 C          -5.7096   -7.1750    2.0665 C.3     1  UNL1       -0.0496
     12 C          -5.4627    0.2748   -6.4929 C.3     1  UNL1       -0.0526
     13 C          -7.2361   -7.2052    2.1898 C.3     1  UNL1       -0.0348
     14 C          -9.4935  -10.5447    4.8247 C.3     1  UNL1       -0.0528
     15 C         -10.9348  -10.4654    5.3355 C.3     1  UNL1       -0.0530
     16 C          -5.9481    1.6691   -6.8910 C.3     1  UNL1       -0.0430
     17 C          -9.3858  -10.0055    3.4038 C.3     1  UNL1       -0.0496
     18 C         -11.0552  -11.0140    6.7601 C.3     1  UNL1       -0.0531
     19 C          -7.9575  -10.0717    2.8736 C.3     1  UNL1       -0.0348
     20 C         -12.4956  -10.9379    7.2735 C.3     1  UNL1       -0.0533
     21 C          -7.7574   -8.2142    1.2042 C.2     1  UNL1       -0.0879
     22 C          -5.4390    2.7711   -5.9618 C.3     1  UNL1        0.0448
     23 C          -7.9818   -9.5034    1.4873 C.2     1  UNL1       -0.0879
     24 C         -12.6287  -11.4918    8.6936 C.3     1  UNL1       -0.0559
     25 C         -14.0647  -11.4096    9.1938 C.3     1  UNL1       -0.0653
     26 C          -5.9093    4.1214   -6.4180 C.2     1  UNL1        0.3047
     27 H          -5.7540   -4.0177   -3.6431 H       1  UNL1        0.0265
     28 H          -4.2749   -3.3170   -2.9865 H       1  UNL1        0.0265
     29 H          -5.4247   -2.9184   -0.7982 H       1  UNL1        0.0265
     30 H          -6.9040   -3.6276   -1.4469 H       1  UNL1        0.0265
     31 H          -5.4761   -1.1522   -2.5860 H       1  UNL1        0.0265
     32 H          -6.9543   -1.8572   -3.2381 H       1  UNL1        0.0265
     33 H          -5.6931   -5.7823   -1.8576 H       1  UNL1        0.0265
     34 H          -4.2074   -5.0790   -1.2076 H       1  UNL1        0.0265
     35 H          -5.8026   -2.2476   -5.4333 H       1  UNL1        0.0265
     36 H          -4.3209   -1.5474   -4.7749 H       1  UNL1        0.0265
     37 H          -5.3707   -4.6716    0.9829 H       1  UNL1        0.0265
     38 H          -6.8346   -5.3682    0.2954 H       1  UNL1        0.0265
     39 H          -5.5846   -7.5378   -0.0755 H       1  UNL1        0.0265
     40 H          -4.1450   -6.8330    0.6202 H       1  UNL1        0.0265
     41 H          -5.5157    0.5878   -4.3508 H       1  UNL1        0.0265
     42 H          -7.0033   -0.0826   -5.0203 H       1  UNL1        0.0265
     43 H          -5.2980   -8.1620    2.3203 H       1  UNL1        0.0268
     44 H          -5.2964   -6.4698    2.7999 H       1  UNL1        0.0268
     45 H          -5.8516   -0.4520   -7.2180 H       1  UNL1        0.0265
     46 H          -4.3683    0.2341   -6.5619 H       1  UNL1        0.0265
     47 H          -9.1458  -11.5834    4.8439 H       1  UNL1        0.0265
     48 H          -8.8367   -9.9664    5.4858 H       1  UNL1        0.0265
     49 H         -11.2758   -9.4223    5.3092 H       1  UNL1        0.0265
     50 H         -11.5932  -11.0324    4.6650 H       1  UNL1        0.0265
     51 H          -7.5158   -7.4429    3.2202 H       1  UNL1        0.0307
     52 H          -7.6888   -6.2295    2.0039 H       1  UNL1        0.0307
     53 H          -7.0461    1.6838   -6.9043 H       1  UNL1        0.0270
     54 H          -5.6257    1.8714   -7.9181 H       1  UNL1        0.0270
     55 H          -9.7370   -8.9654    3.3864 H       1  UNL1        0.0268
     56 H         -10.0497  -10.5723    2.7384 H       1  UNL1        0.0268
     57 H         -10.7116  -12.0553    6.7769 H       1  UNL1        0.0265
     58 H         -10.3966  -10.4458    7.4281 H       1  UNL1        0.0265
     59 H          -7.5735  -11.0969    2.8452 H       1  UNL1        0.0307
     60 H          -7.2801   -9.5195    3.5364 H       1  UNL1        0.0307
     61 H         -12.8351   -9.8933    7.2557 H       1  UNL1        0.0265
     62 H         -13.1538  -11.5019    6.6015 H       1  UNL1        0.0265
     63 H          -7.8681   -7.8828    0.1724 H       1  UNL1        0.0569
     64 H          -4.3449    2.7847   -5.9250 H       1  UNL1        0.0377
     65 H          -5.8214    2.6141   -4.9487 H       1  UNL1        0.0377
     66 H          -8.2540  -10.1792    0.6790 H       1  UNL1        0.0569
     67 H         -12.3034  -12.5381    8.7165 H       1  UNL1        0.0263
     68 H         -11.9779  -10.9349    9.3781 H       1  UNL1        0.0263
     69 H         -14.7379  -11.9806    8.5465 H       1  UNL1        0.0230
     70 H         -14.1402  -11.8201   10.2059 H       1  UNL1        0.0230
     71 H         -14.4148  -10.3725    9.2230 H       1  UNL1        0.0230
     72 H          -6.2948    5.8289   -5.8469 H       1  UNL1        0.2951
@<TRIPOS>BOND
     1     1    26    1
     2     1    72    1
     3     2    26    2
     4     3     4    1
     5     3     5    1
     6     3    27    1
     7     3    28    1
     8     4     6    1
     9     4    29    1
    10     4    30    1
    11     5     7    1
    12     5    31    1
    13     5    32    1
    14     6     8    1
    15     6    33    1
    16     6    34    1
    17     7    10    1
    18     7    35    1
    19     7    36    1
    20     8     9    1
    21     8    37    1
    22     8    38    1
    23     9    11    1
    24     9    39    1
    25     9    40    1
    26    10    12    1
    27    10    41    1
    28    10    42    1
    29    11    13    1
    30    11    43    1
    31    11    44    1
    32    12    16    1
    33    12    45    1
    34    12    46    1
    35    13    21    1
    36    13    51    1
    37    13    52    1
    38    14    15    1
    39    14    17    1
    40    14    47    1
    41    14    48    1
    42    15    18    1
    43    15    49    1
    44    15    50    1
    45    16    22    1
    46    16    53    1
    47    16    54    1
    48    17    19    1
    49    17    55    1
    50    17    56    1
    51    18    20    1
    52    18    57    1
    53    18    58    1
    54    19    23    1
    55    19    59    1
    56    19    60    1
    57    20    24    1
    58    20    61    1
    59    20    62    1
    60    21    23    2
    61    21    63    1
    62    22    26    1
    63    22    64    1
    64    22    65    1
    65    23    66    1
    66    24    25    1
    67    24    67    1
    68    24    68    1
    69    25    69    1
    70    25    70    1
    71    25    71    1
