@<TRIPOS>MOLECULE
oleic_acid_c18_1
 54 53 0 0 0
SMALL
GASTEIGER

@<TRIPOS>ATOM
      1 O           7.2438    0.3284   -0.6585 O.3     1  UNL1       -0.4806
      2 O           6.1472   -0.1564    1.2753 O.2     1  UNL1       -0.2510
      3 C          -3.1503   -1.5706   -0.3069 C.3     1  UNL1       -0.0530
      4 C          -4.4422   -1.3743    0.4892 C.3     1  UNL1       -0.0528
      5 C          -2.0942   -2.3907    0.4411 C.3     1  UNL1       -0.0531
      6 C          -0.0012    1.9226   -0.4319 C.3     1  UNL1       -0.0528
      7 C           1.2016    1.3600    0.3282 C.3     1  UNL1       -0.0530
      8 C          -5.5251   -0.6197   -0.2917 C.3     1  UNL1       -0.0496
      9 C          -1.2513    1.9525    0.4529 C.3     1  UNL1       -0.0496
     10 C           2.4597    1.3590   -0.5429 C.3     1  UNL1       -0.0526
     11 C          -0.8105   -2.6942   -0.3381 C.3     1  UNL1       -0.0533
     12 C          -5.1402    0.7880   -0.7626 C.3     1  UNL1       -0.0348
     13 C          -2.4879    2.4841   -0.2779 C.3     1  UNL1       -0.0348
     14 C           3.6695    0.8265    0.2315 C.3     1  UNL1       -0.0430
     15 C           0.2198   -3.5599    0.3898 C.3     1  UNL1       -0.0559
     16 C          -4.8401    1.7249    0.3718 C.2     1  UNL1       -0.0879
     17 C          -3.7267    2.4473    0.5696 C.2     1  UNL1       -0.0879
     18 C           4.9376    0.7868   -0.6213 C.3     1  UNL1        0.0448
     19 C           1.4531   -3.8707   -0.4432 C.3     1  UNL1       -0.0653
     20 C           6.1374    0.2564    0.1255 C.2     1  UNL1        0.3047
     21 H          -2.7120   -0.6036   -0.5699 H       1  UNL1        0.0265
     22 H          -3.3866   -2.0763   -1.2513 H       1  UNL1        0.0265
     23 H          -4.8429   -2.3555    0.7724 H       1  UNL1        0.0265
     24 H          -4.2198   -0.8479    1.4249 H       1  UNL1        0.0265
     25 H          -1.8271   -1.8633    1.3656 H       1  UNL1        0.0265
     26 H          -2.5439   -3.3435    0.7481 H       1  UNL1        0.0265
     27 H           0.2219    2.9375   -0.7821 H       1  UNL1        0.0265
     28 H          -0.1945    1.3077   -1.3192 H       1  UNL1        0.0265
     29 H           1.3799    1.9612    1.2280 H       1  UNL1        0.0265
     30 H           0.9826    0.3378    0.6603 H       1  UNL1        0.0265
     31 H          -6.4239   -0.5581    0.3354 H       1  UNL1        0.0268
     32 H          -5.8056   -1.2134   -1.1708 H       1  UNL1        0.0268
     33 H          -1.0555    2.5759    1.3349 H       1  UNL1        0.0268
     34 H          -1.4527    0.9403    0.8253 H       1  UNL1        0.0268
     35 H           2.6694    2.3772   -0.8922 H       1  UNL1        0.0265
     36 H           2.2904    0.7391   -1.4316 H       1  UNL1        0.0265
     37 H          -1.0849   -3.1921   -1.2768 H       1  UNL1        0.0265
     38 H          -0.3395   -1.7440   -0.6200 H       1  UNL1        0.0265
     39 H          -5.9916    1.2045   -1.3158 H       1  UNL1        0.0307
     40 H          -4.3225    0.7258   -1.4845 H       1  UNL1        0.0307
     41 H          -2.6205    1.9282   -1.2104 H       1  UNL1        0.0307
     42 H          -2.3101    3.5260   -0.5721 H       1  UNL1        0.0307
     43 H           3.4503   -0.1828    0.6026 H       1  UNL1        0.0270
     44 H           3.8442    1.4521    1.1159 H       1  UNL1        0.0270
     45 H           0.5302   -3.0521    1.3107 H       1  UNL1        0.0263
     46 H          -0.2500   -4.5038    0.6907 H       1  UNL1        0.0263
     47 H          -5.6389    1.8410    1.1029 H       1  UNL1        0.0569
     48 H          -3.7034    3.0866    1.4510 H       1  UNL1        0.0569
     49 H           4.7734    0.1451   -1.4942 H       1  UNL1        0.0377
     50 H           5.1730    1.8000   -0.9668 H       1  UNL1        0.0377
     51 H           1.9701   -2.9499   -0.7317 H       1  UNL1        0.0230
     52 H           2.1520   -4.4899    0.1278 H       1  UNL1        0.0230
     53 H           1.1825   -4.4129   -1.3546 H       1  UNL1        0.0230
     54 H           8.0434    0.0024   -0.1931 H       1  UNL1        0.2951
@<TRIPOS>BOND
     1     1    20    1
     2     1    54    1
     3     2    20    2
     4     3     4    1
     5     3     5    1
     6     3    21    1
     7     3    22    1
     8     4     8    1
     9     4    23    1
    10     4    24    1
    11     5    11    1
    12     5    25    1
    13     5    26    1
    14     6     7    1
    15     6     9    1
    16     6    27    1
    17     6    28    1
    18     7    10    1
    19     7    29    1
    20     7    30    1
    21     8    12    1
    22     8    31    1
    23     8    32    1
    24     9    13    1
    25     9    33    1
    26     9    34    1
    27    10    14    1
    28    10    35    1
    29    10    36    1
    30    11    15    1
    31    11    37    1
    32    11    38    1
    33    12    16    1
    34    12    39    1
    35    12    40    1
    36    13    17    1
    37    13    41    1
    38    13    42    1
    39    14    18    1
    40    14    43    1
    41    14    44    1
    42    15    19    1
    43    15    45    1
    44    15    46    1
    45    16    17    2
    46    16    47    1
    47    17    48    1
    48    18    20    1
    49    18    49    1
    50    18    50    1
    51    19    51    1
    52    19    52    1
    53    19    53    1
