@<TRIPOS>MOLECULE
palmitoleic_acid_c16_1
 48 47 0 0 0
SMALL
GASTEIGER

@<TRIPOS>ATOM
      1 O          -7.4634    1.7072    0.5561 O.3     1  UNL1       -0.4806
      2 O          -6.0636    1.8811   -1.2234 O.2     1  UNL1       -0.2510
      3 C          -0.9599   -2.0680    0.4018 C.3     1  UNL1       -0.0528
      4 C          -1.9407   -1.1238   -0.3027 C.3     1  UNL1       -0.0530
      5 C           0.3381   -2.2868   -0.3836 C.3     1  UNL1       -0.0496
      6 C          -3.2018   -0.8388    0.5172 C.3     1  UNL1       -0.0526
      7 C           1.3432   -3.1755    0.3574 C.3     1  UNL1       -0.0348
      8 C          -4.1525    0.1552   -0.1611 C.3     1  UNL1       -0.0430
      9 C           4.3452    1.0534    0.5124 C.3     1  UNL1       -0.0528
     10 C           4.1509   -0.1901   -0.3615 C.3     1  UNL1       -0.0496
     11 C           4.7757    2.2911   -0.2816 C.3     1  UNL1       -0.0533
     12 C           3.8021   -1.4413    0.4521 C.3     1  UNL1       -0.0348
     13 C           2.5868   -3.4468   -0.4387 C.2     1  UNL1       -0.0879
     14 C           5.0735    3.5417    0.5493 C.3     1  UNL1       -0.0559
     15 C          -5.4297    0.4540    0.6182 C.3     1  UNL1        0.0448
     16 C           3.6820   -2.6740   -0.3964 C.2     1  UNL1       -0.0879
     17 C           5.4458    4.7548   -0.2886 C.3     1  UNL1       -0.0653
     18 C          -6.3316    1.4067   -0.1268 C.2     1  UNL1        0.3047
     19 H          -0.7140   -1.6559    1.3883 H       1  UNL1        0.0265
     20 H          -1.4484   -3.0348    0.5740 H       1  UNL1        0.0265
     21 H          -2.2255   -1.5549   -1.2702 H       1  UNL1        0.0265
     22 H          -1.4322   -0.1753   -0.5158 H       1  UNL1        0.0265
     23 H           0.0966   -2.7357   -1.3556 H       1  UNL1        0.0268
     24 H           0.7980   -1.3128   -0.5925 H       1  UNL1        0.0268
     25 H          -3.7341   -1.7804    0.6990 H       1  UNL1        0.0265
     26 H          -2.9143   -0.4419    1.4985 H       1  UNL1        0.0265
     27 H           0.8709   -4.1457    0.5619 H       1  UNL1        0.0307
     28 H           1.5675   -2.7654    1.3475 H       1  UNL1        0.0307
     29 H          -3.6130    1.0942   -0.3410 H       1  UNL1        0.0270
     30 H          -4.4188   -0.2366   -1.1515 H       1  UNL1        0.0270
     31 H           5.1051    0.8409    1.2744 H       1  UNL1        0.0265
     32 H           3.4131    1.2735    1.0468 H       1  UNL1        0.0265
     33 H           3.3569    0.0041   -1.0937 H       1  UNL1        0.0268
     34 H           5.0698   -0.3731   -0.9333 H       1  UNL1        0.0268
     35 H           3.9893    2.5284   -1.0095 H       1  UNL1        0.0265
     36 H           5.6710    2.0421   -0.8654 H       1  UNL1        0.0265
     37 H           4.6000   -1.6217    1.1836 H       1  UNL1        0.0307
     38 H           2.9024   -1.2245    1.0330 H       1  UNL1        0.0307
     39 H           2.5828   -4.3152   -1.0921 H       1  UNL1        0.0569
     40 H           5.8911    3.3252    1.2471 H       1  UNL1        0.0263
     41 H           4.1947    3.7879    1.1568 H       1  UNL1        0.0263
     42 H          -5.9838   -0.4748    0.7913 H       1  UNL1        0.0377
     43 H          -5.1763    0.9039    1.5841 H       1  UNL1        0.0377
     44 H           4.5395   -2.9500   -1.0044 H       1  UNL1        0.0569
     45 H           4.6324    5.0227   -0.9703 H       1  UNL1        0.0230
     46 H           5.6477    5.6155    0.3566 H       1  UNL1        0.0230
     47 H           6.3423    4.5568   -0.8846 H       1  UNL1        0.0230
     48 H          -8.0324    2.3364    0.0635 H       1  UNL1        0.2951
@<TRIPOS>BOND
     1     1    18    1
     2     1    48    1
     3     2    18    2
     4     3     4    1
     5     3     5    1
     6     3    19    1
     7     3    20    1
     8     4     6    1
     9     4    21    1
    10     4    22    1
    11     5     7    1
    12     5    23    1
    13     5    24    1
    14     6     8    1
    15     6    25    1
    16     6    26    1
    17     7    13    1
    18     7    27    1
    19     7    28    1
    20     8    15    1
    21     8    29    1
    22     8    30    1
    23     9    10    1
    24     9    11    1
    25     9    31    1
    26     9    32    1
    27    10    12    1
    28    10    33    1
    29    10    34    1
    30    11    14    1
    31    11    35    1
    32    11    36    1
    33    12    16    1
    34    12    37    1
    35    12    38    1
    36    13    16    2
    37    13    39    1
    38    14    17    1
    39    14    40    1
    40    14    41    1
    41    15    18    1
    42    15    42    1
    43    15    43    1
    44    16    44    1
    45    17    45    1
    46    17    46    1
    47    17    47    1
