@<TRIPOS>MOLECULE
palmitic_acid_c16
 50 49 0 0 0
SMALL
GASTEIGER

@<TRIPOS>ATOM
      1 O          -9.5605    0.6695   -0.0838 O.3     1  UNL1       -0.4806
      2 O          -8.5332   -1.3534    0.0164 O.2     1  UNL1       -0.2510
      3 C           1.7700   -0.4356    0.0582 C.3     1  UNL1       -0.0531
      4 C           0.5235    0.4509    0.0830 C.3     1  UNL1       -0.0531
      5 C           3.0463    0.4092    0.0877 C.3     1  UNL1       -0.0531
      6 C          -0.7911   -0.3346    0.0414 C.3     1  UNL1       -0.0531
      7 C           4.2949   -0.4722    0.0265 C.3     1  UNL1       -0.0531
      8 C          -2.0721    0.5050   -0.0209 C.3     1  UNL1       -0.0531
      9 C           5.6050    0.3187    0.0913 C.3     1  UNL1       -0.0531
     10 C          -3.3539   -0.3321   -0.0108 C.3     1  UNL1       -0.0530
     11 C           6.8930   -0.5009   -0.0508 C.3     1  UNL1       -0.0531
     12 C          -4.5986    0.5561    0.0054 C.3     1  UNL1       -0.0526
     13 C           8.1645    0.3517   -0.0404 C.3     1  UNL1       -0.0533
     14 C          -5.9165   -0.2275   -0.0233 C.3     1  UNL1       -0.0430
     15 C           9.4506   -0.4776   -0.0930 C.3     1  UNL1       -0.0559
     16 C          -7.1730    0.6435   -0.0191 C.3     1  UNL1        0.0448
     17 C          10.7192    0.3603   -0.0527 C.3     1  UNL1       -0.0653
     18 C          -8.4681   -0.1310   -0.0149 C.2     1  UNL1        0.3047
     19 H           1.7548   -1.1149    0.9189 H       1  UNL1        0.0265
     20 H           1.7587   -1.0564   -0.8456 H       1  UNL1        0.0265
     21 H           0.5360    1.0745    0.9855 H       1  UNL1        0.0265
     22 H           0.5519    1.1356   -0.7738 H       1  UNL1        0.0265
     23 H           3.0499    1.1058   -0.7593 H       1  UNL1        0.0265
     24 H           3.0675    1.0123    1.0033 H       1  UNL1        0.0265
     25 H          -0.8365   -0.9824    0.9261 H       1  UNL1        0.0265
     26 H          -0.7737   -1.0030   -0.8290 H       1  UNL1        0.0265
     27 H           4.2759   -1.1927    0.8534 H       1  UNL1        0.0265
     28 H           4.2778   -1.0564   -0.9018 H       1  UNL1        0.0265
     29 H          -2.0493    1.1259   -0.9248 H       1  UNL1        0.0265
     30 H          -2.0825    1.1921    0.8344 H       1  UNL1        0.0265
     31 H           5.5908    1.0785   -0.7008 H       1  UNL1        0.0265
     32 H           5.6387    0.8661    1.0419 H       1  UNL1        0.0265
     33 H          -3.3611   -0.9849    0.8701 H       1  UNL1        0.0265
     34 H          -3.3734   -0.9811   -0.8944 H       1  UNL1        0.0265
     35 H           6.9379   -1.2311    0.7664 H       1  UNL1        0.0265
     36 H           6.8533   -1.0741   -0.9851 H       1  UNL1        0.0265
     37 H          -4.5713    1.2318   -0.8586 H       1  UNL1        0.0265
     38 H          -4.5806    1.1888    0.9014 H       1  UNL1        0.0265
     39 H           8.1435    1.0427   -0.8919 H       1  UNL1        0.0265
     40 H           8.1753    0.9681    0.8670 H       1  UNL1        0.0265
     41 H          -5.9460   -0.9033    0.8411 H       1  UNL1        0.0270
     42 H          -5.9313   -0.8708   -0.9125 H       1  UNL1        0.0270
     43 H           9.4539   -1.0823   -1.0077 H       1  UNL1        0.0263
     44 H           9.4650   -1.1782    0.7506 H       1  UNL1        0.0263
     45 H          -7.1671    1.2837    0.8703 H       1  UNL1        0.0377
     46 H          -7.1683    1.2834   -0.9089 H       1  UNL1        0.0377
     47 H          10.7586    1.0487   -0.9027 H       1  UNL1        0.0230
     48 H          11.6026   -0.2843   -0.0940 H       1  UNL1        0.0230
     49 H          10.7686    0.9489    0.8687 H       1  UNL1        0.0230
     50 H         -10.3937    0.1519   -0.0956 H       1  UNL1        0.2951
@<TRIPOS>BOND
     1     1    18    1
     2     1    50    1
     3     2    18    2
     4     3     4    1
     5     3     5    1
     6     3    19    1
     7     3    20    1
     8     4     6    1
     9     4    21    1
    10     4    22    1
    11     5     7    1
    12     5    23    1
    13     5    24    1
    14     6     8    1
    15     6    25    1
    16     6    26    1
    17     7     9    1
    18     7    27    1
    19     7    28    1
    20     8    10    1
    21     8    29    1
    22     8    30    1
    23     9    11    1
    24     9    31    1
    25     9    32    1
    26    10    12    1
    27    10    33    1
    28    10    34    1
    29    11    13    1
    30    11    35    1
    31    11    36    1
    32    12    14    1
    33    12    37    1
    34    12    38    1
    35    13    15    1
    36    13    39    1
    37    13    40    1
    38    14    16    1
    39    14    41    1
    40    14    42    1
    41    15    17    1
    42    15    43    1
    43    15    44    1
    44    16    18    1
    45    16    45    1
    46    16    46    1
    47    17    47    1
    48    17    48    1
    49    17    49    1
