@<TRIPOS>MOLECULE
prostaglandin_e2
 57 57 0 0 0
SMALL
GASTEIGER

@<TRIPOS>ATOM
      1 O           4.0191   -2.6709   -0.5130 O.3     1  UNL1       -0.3908
      2 O           4.1470    1.8261    0.8402 O.2     1  UNL1       -0.2970
      3 O          -0.7521   -4.5658   -0.7371 O.3     1  UNL1       -0.3878
      4 O          -3.0274    1.3856   -2.4518 O.3     1  UNL1       -0.4806
      5 O          -0.7944    1.0297   -2.2638 O.2     1  UNL1       -0.2510
      6 C           2.2990   -1.1145    0.1831 C.3     1  UNL1        0.0134
      7 C           2.2351    0.4108    0.3557 C.3     1  UNL1        0.0296
      8 C           3.5621   -1.3359   -0.6598 C.3     1  UNL1        0.0688
      9 C           4.5821   -0.3549   -0.0861 C.3     1  UNL1        0.0327
     10 C           3.7077    0.7602    0.4264 C.2     1  UNL1        0.1398
     11 C           1.4737    0.8455    1.5957 C.3     1  UNL1       -0.0246
     12 C           1.0678   -1.6733   -0.4551 C.2     1  UNL1       -0.0793
     13 C           0.2893   -2.6053    0.1139 C.2     1  UNL1       -0.0595
     14 C           1.4303    2.3219    1.8873 C.2     1  UNL1       -0.0873
     15 C          -0.9469   -3.1652   -0.5321 C.3     1  UNL1        0.0734
     16 C          -2.2022   -2.9973    0.3349 C.3     1  UNL1       -0.0232
     17 C          -2.7616   -1.5717    0.3180 C.3     1  UNL1       -0.0504
     18 C           0.5427    3.2126    1.4193 C.2     1  UNL1       -0.0879
     19 C          -3.9674   -1.3814    1.2439 C.3     1  UNL1       -0.0532
     20 C          -0.5862    2.8553    0.4969 C.3     1  UNL1       -0.0343
     21 C          -4.5721    0.0215    1.1766 C.3     1  UNL1       -0.0559
     22 C          -0.5354    3.5864   -0.8518 C.3     1  UNL1       -0.0395
     23 C          -1.6960    3.2416   -1.7901 C.3     1  UNL1        0.0451
     24 C          -5.7570    0.1601    2.1208 C.3     1  UNL1       -0.0653
     25 C          -1.7572    1.7787   -2.1722 C.2     1  UNL1        0.3047
     26 H           2.4501   -1.5941    1.1620 H       1  UNL1        0.0375
     27 H           1.8299    0.8924   -0.5439 H       1  UNL1        0.0387
     28 H           3.3807   -1.1349   -1.7230 H       1  UNL1        0.0603
     29 H           5.1525   -0.7873    0.7412 H       1  UNL1        0.0367
     30 H           5.2615    0.0090   -0.8608 H       1  UNL1        0.0367
     31 H           0.4546    0.4422    1.5680 H       1  UNL1        0.0314
     32 H           1.9270    0.3732    2.4791 H       1  UNL1        0.0314
     33 H           0.8013   -1.2912   -1.4378 H       1  UNL1        0.0574
     34 H           0.5542   -2.9962    1.0935 H       1  UNL1        0.0594
     35 H           4.8600   -2.7449   -0.9959 H       1  UNL1        0.2098
     36 H           2.2072    2.6969    2.5511 H       1  UNL1        0.0569
     37 H          -1.1221   -2.7201   -1.5186 H       1  UNL1        0.0637
     38 H          -1.9894   -3.3058    1.3671 H       1  UNL1        0.0293
     39 H          -2.9797   -3.6862   -0.0212 H       1  UNL1        0.0293
     40 H          -3.0503   -1.3134   -0.7082 H       1  UNL1        0.0266
     41 H          -1.9785   -0.8629    0.6134 H       1  UNL1        0.0266
     42 H           0.6332    4.2526    1.7215 H       1  UNL1        0.0569
     43 H          -3.6622   -1.5968    2.2755 H       1  UNL1        0.0265
     44 H          -4.7380   -2.1172    0.9821 H       1  UNL1        0.0265
     45 H          -0.6407    1.7783    0.3196 H       1  UNL1        0.0307
     46 H          -1.5230    3.1206    1.0038 H       1  UNL1        0.0307
     47 H           0.0166   -4.6742   -1.3233 H       1  UNL1        0.2102
     48 H          -3.8112    0.7660    1.4381 H       1  UNL1        0.0263
     49 H          -4.8977    0.2364    0.1523 H       1  UNL1        0.0263
     50 H          -0.5368    4.6699   -0.6788 H       1  UNL1        0.0273
     51 H           0.4129    3.3489   -1.3512 H       1  UNL1        0.0273
     52 H          -2.6374    3.5141   -1.2986 H       1  UNL1        0.0378
     53 H          -1.6143    3.8236   -2.7143 H       1  UNL1        0.0378
     54 H          -6.5480   -0.5519    1.8649 H       1  UNL1        0.0230
     55 H          -5.4552   -0.0186    3.1578 H       1  UNL1        0.0230
     56 H          -6.1750    1.1696    2.0577 H       1  UNL1        0.0230
     57 H          -3.0679    0.4414   -2.7148 H       1  UNL1        0.2951
@<TRIPOS>BOND
     1     1     8    1
     2     1    35    1
     3     2    10    2
     4     3    15    1
     5     3    47    1
     6     4    25    1
     7     4    57    1
     8     5    25    2
     9     6     7    1
    10     6     8    1
    11     6    12    1
    12     6    26    1
    13     7    10    1
    14     7    11    1
    15     7    27    1
    16     8     9    1
    17     8    28    1
    18     9    10    1
    19     9    29    1
    20     9    30    1
    21    11    14    1
    22    11    31    1
    23    11    32    1
    24    12    13    2
    25    12    33    1
    26    13    15    1
    27    13    34    1
    28    14    18    2
    29    14    36    1
    30    15    16    1
    31    15    37    1
    32    16    17    1
    33    16    38    1
    34    16    39    1
    35    17    19    1
    36    17    40    1
    37    17    41    1
    38    18    20    1
    39    18    42    1
    40    19    21    1
    41    19    43    1
    42    19    44    1
    43    20    22    1
    44    20    45    1
    45    20    46    1
    46    21    24    1
    47    21    48    1
    48    21    49    1
    49    22    23    1
    50    22    50    1
    51    22    51    1
    52    23    25    1
    53    23    52    1
    54    23    53    1
    55    24    54    1
    56    24    55    1
    57    24    56    1
