@<TRIPOS>MOLECULE
stearic_acid_c18
 56 55 0 0 0
SMALL
GASTEIGER

@<TRIPOS>ATOM
      1 O           2.9419    2.2590    3.0054 O.3     1  UNL1       -0.4806
      2 O           3.2735    1.0573    1.1574 O.2     1  UNL1       -0.2510
      3 C          -5.2273    3.5599   -2.7766 C.3     1  UNL1       -0.0531
      4 C          -3.6964    3.5215   -2.7479 C.3     1  UNL1       -0.0531
      5 C          -5.7683    4.8913   -2.2439 C.3     1  UNL1       -0.0531
      6 C          -3.1599    3.6660   -1.3217 C.3     1  UNL1       -0.0531
      7 C          -5.2899    6.0690   -3.1010 C.3     1  UNL1       -0.0531
      8 C          -3.6472    2.5260   -0.4212 C.3     1  UNL1       -0.0531
      9 C          -5.7764    5.9445   -4.5477 C.3     1  UNL1       -0.0531
     10 C          -3.1379    1.1548   -0.8903 C.3     1  UNL1       -0.0531
     11 C          -7.3085    5.9776   -4.6497 C.3     1  UNL1       -0.0531
     12 C          -1.6092    1.0811   -0.9426 C.3     1  UNL1       -0.0530
     13 C          -7.9136    7.2568   -4.0703 C.3     1  UNL1       -0.0531
     14 C          -1.0235    1.3347    0.4416 C.3     1  UNL1       -0.0526
     15 C          -7.3853    8.4761   -4.8198 C.3     1  UNL1       -0.0533
     16 C           0.4925    1.3685    0.4355 C.3     1  UNL1       -0.0430
     17 C          -7.8851    9.7921   -4.2407 C.3     1  UNL1       -0.0559
     18 C           0.9926    1.5947    1.8653 C.3     1  UNL1        0.0448
     19 C          -7.3497   10.9416   -5.0808 C.3     1  UNL1       -0.0653
     20 C           2.4951    1.5933    1.9254 C.2     1  UNL1        0.3047
     21 H          -5.5745    3.3695   -3.7966 H       1  UNL1        0.0265
     22 H          -5.6576    2.7399   -2.1955 H       1  UNL1        0.0265
     23 H          -3.2668    4.3057   -3.3785 H       1  UNL1        0.0265
     24 H          -3.3491    2.5876   -3.2044 H       1  UNL1        0.0265
     25 H          -6.8597    4.8522   -2.2074 H       1  UNL1        0.0265
     26 H          -5.4696    5.0549   -1.2079 H       1  UNL1        0.0265
     27 H          -3.4593    4.6246   -0.8845 H       1  UNL1        0.0265
     28 H          -2.0671    3.7146   -1.3467 H       1  UNL1        0.0265
     29 H          -5.6241    7.0083   -2.6465 H       1  UNL1        0.0265
     30 H          -4.1972    6.1418   -3.0917 H       1  UNL1        0.0265
     31 H          -4.7396    2.5030   -0.3696 H       1  UNL1        0.0265
     32 H          -3.3422    2.7248    0.6101 H       1  UNL1        0.0265
     33 H          -5.3268    6.7398   -5.1489 H       1  UNL1        0.0265
     34 H          -5.4059    5.0251   -5.0101 H       1  UNL1        0.0265
     35 H          -3.5427    0.9193   -1.8851 H       1  UNL1        0.0265
     36 H          -3.5250    0.3828   -0.2241 H       1  UNL1        0.0265
     37 H          -7.5964    5.8720   -5.6997 H       1  UNL1        0.0265
     38 H          -7.7429    5.1077   -4.1370 H       1  UNL1        0.0265
     39 H          -1.2070    1.7980   -1.6670 H       1  UNL1        0.0265
     40 H          -1.3095    0.0908   -1.3054 H       1  UNL1        0.0265
     41 H          -9.0065    7.2075   -4.1521 H       1  UNL1        0.0265
     42 H          -7.6992    7.3424   -2.9992 H       1  UNL1        0.0265
     43 H          -1.3866    0.5574    1.1262 H       1  UNL1        0.0265
     44 H          -1.3642    2.2945    0.8381 H       1  UNL1        0.0265
     45 H          -6.2927    8.5062   -4.7855 H       1  UNL1        0.0265
     46 H          -7.6716    8.3923   -5.8746 H       1  UNL1        0.0265
     47 H           0.8459    2.1799   -0.2083 H       1  UNL1        0.0270
     48 H           0.8910    0.4330    0.0296 H       1  UNL1        0.0270
     49 H          -8.9765    9.8107   -4.2317 H       1  UNL1        0.0263
     50 H          -7.5364    9.8974   -3.2084 H       1  UNL1        0.0263
     51 H           0.6202    0.8122    2.5326 H       1  UNL1        0.0377
     52 H           0.6260    2.5638    2.2236 H       1  UNL1        0.0377
     53 H          -7.6797   10.8524   -6.1152 H       1  UNL1        0.0230
     54 H          -7.6988   11.9007   -4.6809 H       1  UNL1        0.0230
     55 H          -6.2485   10.9482   -5.0767 H       1  UNL1        0.0230
     56 H           3.9229    2.1704    2.9352 H       1  UNL1        0.2951
@<TRIPOS>BOND
     1     1    20    1
     2     1    56    1
     3     2    20    2
     4     3     4    1
     5     3     5    1
     6     3    21    1
     7     3    22    1
     8     4     6    1
     9     4    23    1
    10     4    24    1
    11     5     7    1
    12     5    25    1
    13     5    26    1
    14     6     8    1
    15     6    27    1
    16     6    28    1
    17     7     9    1
    18     7    29    1
    19     7    30    1
    20     8    10    1
    21     8    31    1
    22     8    32    1
    23     9    11    1
    24     9    33    1
    25     9    34    1
    26    10    12    1
    27    10    35    1
    28    10    36    1
    29    11    13    1
    30    11    37    1
    31    11    38    1
    32    12    14    1
    33    12    39    1
    34    12    40    1
    35    13    15    1
    36    13    41    1
    37    13    42    1
    38    14    16    1
    39    14    43    1
    40    14    44    1
    41    15    17    1
    42    15    45    1
    43    15    46    1
    44    16    18    1
    45    16    47    1
    46    16    48    1
    47    17    19    1
    48    17    49    1
    49    17    50    1
    50    18    20    1
    51    18    51    1
    52    18    52    1
    53    19    53    1
    54    19    54    1
    55    19    55    1
