@<TRIPOS>MOLECULE
thromboxane_a2
 57 58 0 0 0
SMALL
GASTEIGER

@<TRIPOS>ATOM
      1 O          -4.5013    0.1620    1.1196 O.3     1  UNL1       -0.3474
      2 O          -3.3819    1.6471   -0.4603 O.3     1  UNL1       -0.3436
      3 O           0.8933    4.5690   -0.8498 O.3     1  UNL1       -0.3878
      4 O           3.0939   -1.1943   -2.4659 O.3     1  UNL1       -0.4806
      5 O           0.8578   -0.8649   -2.2661 O.2     1  UNL1       -0.2510
      6 C          -3.6451   -0.8476    0.4619 C.3     1  UNL1        0.0720
      7 C          -2.1945   -0.3373    0.3753 C.3     1  UNL1        0.0189
      8 C          -4.4488   -0.5876   -0.8346 C.3     1  UNL1        0.0252
      9 C          -4.5422    0.8175   -0.2066 C.3     1  UNL1        0.1626
     10 C          -2.2028    1.2115    0.2413 C.3     1  UNL1        0.0853
     11 C          -1.4094   -0.7867    1.6057 C.3     1  UNL1       -0.0269
     12 C          -1.0053    1.7379   -0.4784 C.2     1  UNL1       -0.0567
     13 C          -1.3449   -2.2652    1.8616 C.2     1  UNL1       -0.0875
     14 C          -0.1523    2.6304    0.0451 C.2     1  UNL1       -0.0574
     15 C           1.0512    3.1586   -0.6838 C.3     1  UNL1        0.0734
     16 C          -0.4495   -3.1370    1.3734 C.2     1  UNL1       -0.0879
     17 C           2.3613    2.9295    0.0822 C.3     1  UNL1       -0.0232
     18 C           0.6739   -2.7493    0.4564 C.3     1  UNL1       -0.0343
     19 C           2.6151    1.4570    0.4179 C.3     1  UNL1       -0.0504
     20 C           3.8816    1.2333    1.2508 C.3     1  UNL1       -0.0532
     21 C           0.6274   -3.4527   -0.9071 C.3     1  UNL1       -0.0395
     22 C           4.1762   -0.2414    1.5279 C.3     1  UNL1       -0.0559
     23 C           1.7825   -3.0769   -1.8401 C.3     1  UNL1        0.0451
     24 C           5.4354   -0.4069    2.3656 C.3     1  UNL1       -0.0653
     25 C           1.8284   -1.6059   -2.1920 C.2     1  UNL1        0.3047
     26 H          -3.8062   -1.8519    0.8633 H       1  UNL1        0.0602
     27 H          -1.7329   -0.7867   -0.5149 H       1  UNL1        0.0357
     28 H          -5.4002   -1.1220   -0.9087 H       1  UNL1        0.0339
     29 H          -3.8973   -0.6658   -1.7740 H       1  UNL1        0.0339
     30 H          -5.4803    1.3507   -0.3815 H       1  UNL1        0.0911
     31 H          -2.2707    1.6622    1.2403 H       1  UNL1        0.0645
     32 H          -1.8611   -0.3375    2.5016 H       1  UNL1        0.0312
     33 H          -0.3963   -0.3693    1.5752 H       1  UNL1        0.0312
     34 H          -0.8371    1.3733   -1.4889 H       1  UNL1        0.0595
     35 H          -2.1189   -2.6645    2.5148 H       1  UNL1        0.0569
     36 H          -0.3245    3.0075    1.0505 H       1  UNL1        0.0595
     37 H           1.1376    2.7156   -1.6831 H       1  UNL1        0.0637
     38 H          -0.5300   -4.1843    1.6525 H       1  UNL1        0.0569
     39 H           3.1969    3.3276   -0.5080 H       1  UNL1        0.0293
     40 H           2.3515    3.5202    1.0082 H       1  UNL1        0.0293
     41 H           1.6144   -3.0156    0.9558 H       1  UNL1        0.0307
     42 H           0.7171   -1.6683    0.3019 H       1  UNL1        0.0307
     43 H           2.6922    0.8891   -0.5159 H       1  UNL1        0.0266
     44 H           1.7687    1.0398    0.9750 H       1  UNL1        0.0266
     45 H           3.7819    1.7696    2.2027 H       1  UNL1        0.0265
     46 H           4.7366    1.6775    0.7258 H       1  UNL1        0.0265
     47 H          -0.3242   -3.2143   -1.3995 H       1  UNL1        0.0273
     48 H           0.6400   -4.5395   -0.7568 H       1  UNL1        0.0273
     49 H           0.0897    4.7153   -1.3780 H       1  UNL1        0.2102
     50 H           3.3289   -0.6962    2.0538 H       1  UNL1        0.0263
     51 H           4.2970   -0.7801    0.5810 H       1  UNL1        0.0263
     52 H           1.7048   -3.6404   -2.7760 H       1  UNL1        0.0378
     53 H           2.7276   -3.3499   -1.3561 H       1  UNL1        0.0378
     54 H           6.3065    0.0118    1.8515 H       1  UNL1        0.0230
     55 H           5.3321    0.0952    3.3328 H       1  UNL1        0.0230
     56 H           5.6286   -1.4679    2.5525 H       1  UNL1        0.0230
     57 H           3.1240   -0.2458   -2.7141 H       1  UNL1        0.2951
@<TRIPOS>BOND
     1     1     6    1
     2     1     9    1
     3     2     9    1
     4     2    10    1
     5     3    15    1
     6     3    49    1
     7     4    25    1
     8     4    57    1
     9     5    25    2
    10     6     7    1
    11     6     8    1
    12     6    26    1
    13     7    10    1
    14     7    11    1
    15     7    27    1
    16     8     9    1
    17     8    28    1
    18     8    29    1
    19     9    30    1
    20    10    12    1
    21    10    31    1
    22    11    13    1
    23    11    32    1
    24    11    33    1
    25    12    14    2
    26    12    34    1
    27    13    16    2
    28    13    35    1
    29    14    15    1
    30    14    36    1
    31    15    17    1
    32    15    37    1
    33    16    18    1
    34    16    38    1
    35    17    19    1
    36    17    39    1
    37    17    40    1
    38    18    21    1
    39    18    41    1
    40    18    42    1
    41    19    20    1
    42    19    43    1
    43    19    44    1
    44    20    22    1
    45    20    45    1
    46    20    46    1
    47    21    23    1
    48    21    47    1
    49    21    48    1
    50    22    24    1
    51    22    50    1
    52    22    51    1
    53    23    25    1
    54    23    52    1
    55    23    53    1
    56    24    54    1
    57    24    55    1
    58    24    56    1
