@<TRIPOS>MOLECULE
20970
 11 11 0 0 0
SMALL
GASTEIGER

@<TRIPOS>ATOM
      1 S          -1.4817    0.4241    0.1423 S.3     1  UNL1       -0.1492
      2 S           1.4834    0.4194   -0.1408 S.3     1  UNL1       -0.1492
      3 C          -0.6966   -1.1460   -0.3024 C.3     1  UNL1        0.0035
      4 C           0.6926   -1.1487    0.3017 C.3     1  UNL1        0.0035
      5 C           0.0023    1.4512   -0.0008 C.3     1  UNL1        0.0398
      6 H          -0.6604   -1.2342   -1.3939 H       1  UNL1        0.0384
      7 H          -1.2922   -1.9802    0.0802 H       1  UNL1        0.0384
      8 H           0.6560   -1.2381    1.3931 H       1  UNL1        0.0384
      9 H           1.2854   -1.9844   -0.0820 H       1  UNL1        0.0384
     10 H          -0.0783    2.0900   -0.8844 H       1  UNL1        0.0489
     11 H           0.0848    2.0927    0.8807 H       1  UNL1        0.0489
@<TRIPOS>BOND
     1     1     3    1
     2     1     5    1
     3     2     4    1
     4     2     5    1
     5     3     4    1
     6     3     6    1
     7     3     7    1
     8     4     8    1
     9     4     9    1
    10     5    10    1
    11     5    11    1
