@<TRIPOS>MOLECULE
10452
 14 14 0 0 0
SMALL
GASTEIGER

@<TRIPOS>ATOM
      1 S           1.7251   -0.0036    0.2528 S.3     1  UNL1       -0.1591
      2 S          -1.7250    0.0035   -0.2527 S.3     1  UNL1       -0.1591
      3 C          -0.6953   -1.3827    0.3149 C.3     1  UNL1        0.0027
      4 C           0.6894   -1.3856   -0.3149 C.3     1  UNL1        0.0027
      5 C          -0.6894    1.3857    0.3148 C.3     1  UNL1        0.0027
      6 C           0.6953    1.3828   -0.3148 C.3     1  UNL1        0.0027
      7 H          -1.2162   -2.3039    0.0325 H       1  UNL1        0.0384
      8 H          -0.6416   -1.3721    1.4093 H       1  UNL1        0.0384
      9 H          -0.6359    1.3750    1.4091 H       1  UNL1        0.0384
     10 H          -1.2064    2.3089    0.0321 H       1  UNL1        0.0384
     11 H           1.2063   -2.3090   -0.0324 H       1  UNL1        0.0384
     12 H           0.6357   -1.3748   -1.4093 H       1  UNL1        0.0384
     13 H           0.6417    1.3722   -1.4091 H       1  UNL1        0.0384
     14 H           1.2160    2.3039   -0.0322 H       1  UNL1        0.0384
@<TRIPOS>BOND
     1     1     4    1
     2     1     6    1
     3     2     3    1
     4     2     5    1
     5     3     4    1
     6     3     7    1
     7     3     8    1
     8     4    11    1
     9     4    12    1
    10     5     6    1
    11     5     9    1
    12     5    10    1
    13     6    13    1
    14     6    14    1
