@<TRIPOS>MOLECULE
69997
 17 18 0 0 0
SMALL
GASTEIGER

@<TRIPOS>ATOM
      1 S          -1.6879   -0.4119   -0.0002 S.O2    1  UNL1        0.0190
      2 O          -2.1230   -0.9492    1.2717 O.2     1  UNL1       -0.1649
      3 O          -2.1228   -0.9481   -1.2724 O.2     1  UNL1       -0.1649
      4 C           0.0538   -0.3859    0.0001 C.ar    1  UNL1        0.1001
      5 C           0.5061    0.9307   -0.0001 C.ar    1  UNL1        0.0014
      6 C          -1.7992    1.3266    0.0008 C.2     1  UNL1        0.0580
      7 C          -0.5854    1.8980    0.0001 C.2     1  UNL1       -0.0348
      8 C           0.8861   -1.4853    0.0002 C.ar    1  UNL1       -0.0359
      9 C           1.8690    1.1763   -0.0002 C.ar    1  UNL1       -0.0527
     10 C           2.2574   -1.2353    0.0000 C.ar    1  UNL1       -0.0599
     11 C           2.7457    0.0840    0.0000 C.ar    1  UNL1       -0.0611
     12 H          -2.7417    1.8552    0.0012 H       1  UNL1        0.0823
     13 H          -0.4105    2.9637    0.0003 H       1  UNL1        0.0637
     14 H           0.5013   -2.4979    0.0002 H       1  UNL1        0.0637
     15 H           2.2603    2.1886   -0.0002 H       1  UNL1        0.0624
     16 H           2.9581   -2.0658    0.0001 H       1  UNL1        0.0618
     17 H           3.8188    0.2568   -0.0001 H       1  UNL1        0.0618
@<TRIPOS>BOND
     1     1     2    2
     2     1     3    2
     3     1     4    1
     4     1     6    1
     5     4     5   ar
     6     4     8   ar
     7     5     7    1
     8     5     9   ar
     9     6     7    2
    10     6    12    1
    11     7    13    1
    12     8    10   ar
    13     8    14    1
    14     9    11   ar
    15     9    15    1
    16    10    11   ar
    17    10    16    1
    18    11    17    1
