@<TRIPOS>MOLECULE
3023
 21 23 0 0 0
SMALL
GASTEIGER

@<TRIPOS>ATOM
      1 S           0.0000   -2.0752    0.0004 S.2     1  UNL1       -0.0882
      2 C           0.7257    0.3977    0.0004 C.ar    1  UNL1       -0.0031
      3 C          -0.7257    0.3977    0.0003 C.ar    1  UNL1       -0.0031
      4 C           1.2467   -0.8971    0.0002 C.ar    1  UNL1        0.0205
      5 C          -1.2467   -0.8972    0.0001 C.ar    1  UNL1        0.0205
      6 C           1.6452    1.4792    0.0002 C.ar    1  UNL1       -0.0529
      7 C          -1.6452    1.4792    0.0002 C.ar    1  UNL1       -0.0529
      8 C           2.6356   -1.1373   -0.0002 C.ar    1  UNL1       -0.0474
      9 C          -2.6357   -1.1374   -0.0001 C.ar    1  UNL1       -0.0474
     10 C           3.0230    1.2462    0.0000 C.ar    1  UNL1       -0.0611
     11 C          -3.0229    1.2463   -0.0001 C.ar    1  UNL1       -0.0611
     12 C           3.5113   -0.0511   -0.0006 C.ar    1  UNL1       -0.0607
     13 C          -3.5113   -0.0510   -0.0006 C.ar    1  UNL1       -0.0607
     14 H           1.2830    2.5046    0.0003 H       1  UNL1        0.0624
     15 H          -1.2830    2.5046    0.0003 H       1  UNL1        0.0624
     16 H           3.0267   -2.1510   -0.0004 H       1  UNL1        0.0629
     17 H          -3.0268   -2.1510   -0.0003 H       1  UNL1        0.0629
     18 H           3.7116    2.0862   -0.0001 H       1  UNL1        0.0618
     19 H          -3.7116    2.0863   -0.0003 H       1  UNL1        0.0618
     20 H           4.5838   -0.2257   -0.0011 H       1  UNL1        0.0618
     21 H          -4.5838   -0.2256   -0.0009 H       1  UNL1        0.0618
@<TRIPOS>BOND
     1     1     4   ar
     2     1     5   ar
     3     2     3   ar
     4     2     4   ar
     5     2     6   ar
     6     3     5   ar
     7     3     7   ar
     8     4     8   ar
     9     5     9   ar
    10     6    10   ar
    11     6    14    1
    12     7    11   ar
    13     7    15    1
    14     8    12   ar
    15     8    16    1
    16     9    13   ar
    17     9    17    1
    18    10    12   ar
    19    10    18    1
    20    11    13   ar
    21    11    19    1
    22    12    20    1
    23    13    21    1
