@<TRIPOS>MOLECULE
21526566
 12 12 0 0 0
SMALL
GASTEIGER

@<TRIPOS>ATOM
      1 S           1.4730   -0.1504    0.0579 S.3     1  UNL1       -0.0807
      2 N           0.4677    1.1838    0.0733 N.3     1  UNL1       -0.2633
      3 C          -1.1210   -0.5686    0.2582 C.3     1  UNL1       -0.0293
      4 C          -0.9362    0.8697   -0.2045 C.3     1  UNL1        0.0073
      5 C           0.1165   -1.3346   -0.1849 C.3     1  UNL1        0.0093
      6 H          -1.2108   -0.6038    1.3522 H       1  UNL1        0.0286
      7 H          -2.0318   -1.0117   -0.1574 H       1  UNL1        0.0286
      8 H          -1.1304    0.9464   -1.2810 H       1  UNL1        0.0434
      9 H          -1.6077    1.5561    0.3191 H       1  UNL1        0.0434
     10 H           0.2709   -2.2439    0.4018 H       1  UNL1        0.0389
     11 H           0.0572   -1.5965   -1.2459 H       1  UNL1        0.0389
     12 H           0.7988    1.9103   -0.5596 H       1  UNL1        0.1350
@<TRIPOS>BOND
     1     1     2    1
     2     1     5    1
     3     2     4    1
     4     2    12    1
     5     3     4    1
     6     3     5    1
     7     3     6    1
     8     3     7    1
     9     4     8    1
    10     4     9    1
    11     5    10    1
    12     5    11    1
