@<TRIPOS>MOLECULE
31347
 15 15 0 0 0
SMALL
GASTEIGER

@<TRIPOS>ATOM
      1 S           0.8614    0.0000    0.0000 S.O2    1  UNL1       -0.0310
      2 O           1.5594    0.4572   -1.1836 O.2     1  UNL1       -0.1744
      3 O           1.5599   -0.4570    1.1834 O.2     1  UNL1       -0.1744
      4 C          -0.3287   -1.2420   -0.4832 C.3     1  UNL1        0.0658
      5 C          -0.3288    1.2418    0.4834 C.3     1  UNL1        0.0658
      6 C          -1.6616   -0.7597    0.0779 C.3     1  UNL1       -0.0321
      7 C          -1.6616    0.7596   -0.0779 C.3     1  UNL1       -0.0321
      8 H          -0.0332   -2.2144   -0.0844 H       1  UNL1        0.0500
      9 H          -0.3525   -1.2755   -1.5763 H       1  UNL1        0.0500
     10 H          -0.0332    2.2144    0.0848 H       1  UNL1        0.0500
     11 H          -0.3526    1.2750    1.5765 H       1  UNL1        0.0500
     12 H          -1.7361   -1.0208    1.1405 H       1  UNL1        0.0281
     13 H          -2.5052   -1.2233   -0.4418 H       1  UNL1        0.0281
     14 H          -1.7360    1.0208   -1.1404 H       1  UNL1        0.0281
     15 H          -2.5052    1.2233    0.4419 H       1  UNL1        0.0281
@<TRIPOS>BOND
     1     1     2    2
     2     1     3    2
     3     1     4    1
     4     1     5    1
     5     4     6    1
     6     4     8    1
     7     4     9    1
     8     5     7    1
     9     5    10    1
    10     5    11    1
    11     6     7    1
    12     6    12    1
    13     6    13    1
    14     7    14    1
    15     7    15    1
