@<TRIPOS>MOLECULE
15367
 16 16 0 0 0
SMALL
GASTEIGER

@<TRIPOS>ATOM
      1 S           1.6967    0.0026   -0.2745 S.3     1  UNL1       -0.1607
      2 C          -1.4805   -0.0021    0.1984 C.3     1  UNL1       -0.0516
      3 C          -0.7629   -1.2729   -0.2494 C.3     1  UNL1       -0.0440
      4 C          -0.7665    1.2706   -0.2498 C.3     1  UNL1       -0.0440
      5 C           0.6587   -1.3770    0.2874 C.3     1  UNL1       -0.0063
      6 C           0.6545    1.3788    0.2878 C.3     1  UNL1       -0.0063
      7 H          -2.4981   -0.0036   -0.2097 H       1  UNL1        0.0266
      8 H          -1.5789   -0.0020    1.2910 H       1  UNL1        0.0266
      9 H          -1.3354   -2.1408    0.0998 H       1  UNL1        0.0273
     10 H          -0.7564   -1.3275   -1.3455 H       1  UNL1        0.0273
     11 H          -0.7596    1.3249   -1.3459 H       1  UNL1        0.0273
     12 H          -1.3415    2.1370    0.0989 H       1  UNL1        0.0273
     13 H           0.6594   -1.3965    1.3825 H       1  UNL1        0.0376
     14 H           1.1167   -2.3100   -0.0564 H       1  UNL1        0.0376
     15 H           1.1098    2.3132   -0.0554 H       1  UNL1        0.0376
     16 H           0.6547    1.3978    1.3828 H       1  UNL1        0.0376
@<TRIPOS>BOND
     1     1     5    1
     2     1     6    1
     3     2     3    1
     4     2     4    1
     5     2     7    1
     6     2     8    1
     7     3     5    1
     8     3     9    1
     9     3    10    1
    10     4     6    1
    11     4    11    1
    12     4    12    1
    13     5    13    1
    14     5    14    1
    15     6    15    1
    16     6    16    1
