@<TRIPOS>MOLECULE
20553328
 11 11 0 0 0
SMALL
GASTEIGER

@<TRIPOS>ATOM
      1 S          -0.0243   -1.4838    0.0604 S.3     1  UNL1       -0.0714
      2 O           2.1076    0.0649    0.0391 O.2     1  UNL1       -0.2838
      3 N          -1.3650    0.7921    0.2615 N.3     1  UNL1       -0.2996
      4 C          -0.0268    1.1982   -0.1849 C.3     1  UNL1        0.0660
      5 C          -1.5795   -0.5868   -0.1732 C.3     1  UNL1        0.0504
      6 C           0.8880    0.0154   -0.0029 C.2     1  UNL1        0.2043
      7 H           0.3278    2.0375    0.4191 H       1  UNL1        0.0512
      8 H          -0.0353    1.4805   -1.2430 H       1  UNL1        0.0512
      9 H          -2.3790   -1.0549    0.4072 H       1  UNL1        0.0543
     10 H          -1.8519   -0.6169   -1.2335 H       1  UNL1        0.0543
     11 H          -2.0761    1.4093   -0.1264 H       1  UNL1        0.1231
@<TRIPOS>BOND
     1     1     5    1
     2     1     6    1
     3     2     6    2
     4     3     4    1
     5     3     5    1
     6     3    11    1
     7     4     6    1
     8     4     7    1
     9     4     8    1
    10     5     9    1
    11     5    10    1
