@<TRIPOS>MOLECULE
10444
 12 12 0 0 0
SMALL
GASTEIGER

@<TRIPOS>ATOM
      1 S          -1.3829   -0.6132   -0.0304 S.3     1  UNL1       -0.1442
      2 N           1.2349   -0.2160    0.2468 N.3     1  UNL1       -0.3065
      3 C           0.6526    1.0273   -0.2770 C.3     1  UNL1        0.0057
      4 C          -0.8015    1.0861    0.1675 C.3     1  UNL1        0.0075
      5 C           0.2969   -1.2841   -0.1069 C.3     1  UNL1        0.0428
      6 H           0.7266    1.0466   -1.3723 H       1  UNL1        0.0432
      7 H           1.2054    1.8933    0.1011 H       1  UNL1        0.0432
      8 H          -0.8854    1.3722    1.2206 H       1  UNL1        0.0389
      9 H          -1.3890    1.7784   -0.4411 H       1  UNL1        0.0389
     10 H           0.4859   -1.6385   -1.1256 H       1  UNL1        0.0539
     11 H           0.4013   -2.1288    0.5794 H       1  UNL1        0.0539
     12 H           2.1463   -0.3892   -0.1739 H       1  UNL1        0.1227
@<TRIPOS>BOND
     1     1     4    1
     2     1     5    1
     3     2     3    1
     4     2     5    1
     5     2    12    1
     6     3     4    1
     7     3     6    1
     8     3     7    1
     9     4     8    1
    10     4     9    1
    11     5    10    1
    12     5    11    1
