@<TRIPOS>MOLECULE
67164
 15 15 0 0 0
SMALL
GASTEIGER

@<TRIPOS>ATOM
      1 S          -1.7104   -0.0007   -0.2534 S.3     1  UNL1       -0.1582
      2 N           1.4409    0.0007    0.2242 N.3     1  UNL1       -0.3144
      3 C           0.7766    1.2118   -0.2599 C.3     1  UNL1        0.0049
      4 C           0.7778   -1.2112   -0.2597 C.3     1  UNL1        0.0049
      5 C          -0.6431    1.3707    0.2744 C.3     1  UNL1        0.0063
      6 C          -0.6419   -1.3713    0.2743 C.3     1  UNL1        0.0063
      7 H           0.7877    1.2436   -1.3569 H       1  UNL1        0.0432
      8 H           1.3646    2.0735    0.0773 H       1  UNL1        0.0432
      9 H           1.3665   -2.0723    0.0778 H       1  UNL1        0.0432
     10 H           0.7891   -1.2432   -1.3567 H       1  UNL1        0.0432
     11 H          -0.6455    1.4192    1.3689 H       1  UNL1        0.0389
     12 H          -1.0772    2.3050   -0.0956 H       1  UNL1        0.0389
     13 H          -1.0751   -2.3059   -0.0958 H       1  UNL1        0.0389
     14 H          -0.6443   -1.4199    1.3688 H       1  UNL1        0.0389
     15 H           2.4063    0.0011   -0.1053 H       1  UNL1        0.1220
@<TRIPOS>BOND
     1     1     5    1
     2     1     6    1
     3     2     3    1
     4     2     4    1
     5     2    15    1
     6     3     5    1
     7     3     7    1
     8     3     8    1
     9     4     6    1
    10     4     9    1
    11     4    10    1
    12     5    11    1
    13     5    12    1
    14     6    13    1
    15     6    14    1
