@<TRIPOS>MOLECULE
12219298
 18 19 0 0 0
SMALL
GASTEIGER

@<TRIPOS>ATOM
      1 S           1.4082    1.7081    0.2595 S.3     1  UNL1       -0.1205
      2 C          -0.0485   -0.6761    0.0773 C.ar    1  UNL1       -0.0119
      3 C          -0.0785    0.7290    0.0860 C.ar    1  UNL1        0.0153
      4 C           2.6444    0.5539   -0.3974 C.3     1  UNL1        0.0167
      5 C           1.2052   -1.4277    0.1963 C.2     1  UNL1       -0.0567
      6 C           2.4043   -0.8703   -0.0167 C.2     1  UNL1       -0.0733
      7 C          -1.2556   -1.3859   -0.0123 C.ar    1  UNL1       -0.0536
      8 C          -1.3076    1.3990    0.0047 C.ar    1  UNL1       -0.0477
      9 C          -2.4731   -0.7105   -0.1027 C.ar    1  UNL1       -0.0611
     10 C          -2.4988    0.6805   -0.0946 C.ar    1  UNL1       -0.0607
     11 H           3.6168    0.8708   -0.0067 H       1  UNL1        0.0423
     12 H           2.6865    0.6423   -1.4880 H       1  UNL1        0.0423
     13 H           1.1425   -2.4830    0.4445 H       1  UNL1        0.0621
     14 H           3.2842   -1.5045    0.0645 H       1  UNL1        0.0580
     15 H          -1.2612   -2.4739   -0.0144 H       1  UNL1        0.0624
     16 H          -1.3533    2.4856    0.0188 H       1  UNL1        0.0629
     17 H          -3.4005   -1.2711   -0.1752 H       1  UNL1        0.0618
     18 H          -3.4464    1.2072   -0.1602 H       1  UNL1        0.0618
@<TRIPOS>BOND
     1     1     3    1
     2     1     4    1
     3     2     3   ar
     4     2     5    1
     5     2     7   ar
     6     3     8   ar
     7     4     6    1
     8     4    11    1
     9     4    12    1
    10     5     6    2
    11     5    13    1
    12     6    14    1
    13     7     9   ar
    14     7    15    1
    15     8    10   ar
    16     8    16    1
    17     9    10   ar
    18     9    17    1
    19    10    18    1
