@<TRIPOS>MOLECULE
137415
 20 21 0 0 0
SMALL
GASTEIGER

@<TRIPOS>ATOM
      1 S           1.3996    1.7325   -0.0544 S.3     1  UNL1       -0.1249
      2 C           1.2033   -1.5039    0.0997 C.3     1  UNL1       -0.0259
      3 C           2.4525   -0.7878   -0.4018 C.3     1  UNL1       -0.0396
      4 C          -0.0614   -0.6861    0.0300 C.ar    1  UNL1       -0.0339
      5 C           2.6833    0.5130    0.3455 C.3     1  UNL1       -0.0014
      6 C          -0.0746    0.7184   -0.0166 C.ar    1  UNL1        0.0111
      7 C          -1.2862   -1.3780    0.0652 C.ar    1  UNL1       -0.0575
      8 C          -1.3056    1.3949   -0.0589 C.ar    1  UNL1       -0.0481
      9 C          -2.5008   -0.6952    0.0281 C.ar    1  UNL1       -0.0614
     10 C          -2.5101    0.6923   -0.0368 C.ar    1  UNL1       -0.0607
     11 H           1.3529   -1.8124    1.1424 H       1  UNL1        0.0314
     12 H           1.0780   -2.4182   -0.4940 H       1  UNL1        0.0314
     13 H           3.3167   -1.4458   -0.2498 H       1  UNL1        0.0276
     14 H           2.3845   -0.6068   -1.4824 H       1  UNL1        0.0276
     15 H           2.6960    0.3467    1.4281 H       1  UNL1        0.0380
     16 H           3.6517    0.9393    0.0656 H       1  UNL1        0.0380
     17 H          -1.2975   -2.4645    0.1208 H       1  UNL1        0.0621
     18 H          -1.3431    2.4816   -0.1062 H       1  UNL1        0.0629
     19 H          -3.4359   -1.2466    0.0512 H       1  UNL1        0.0618
     20 H          -3.4532    1.2299   -0.0671 H       1  UNL1        0.0618
@<TRIPOS>BOND
     1     1     5    1
     2     1     6    1
     3     2     3    1
     4     2     4    1
     5     2    11    1
     6     2    12    1
     7     3     5    1
     8     3    13    1
     9     3    14    1
    10     4     6   ar
    11     4     7   ar
    12     5    15    1
    13     5    16    1
    14     6     8   ar
    15     7     9   ar
    16     7    17    1
    17     8    10   ar
    18     8    18    1
    19     9    10   ar
    20     9    19    1
    21    10    20    1
