@<TRIPOS>MOLECULE
1127
 13 13 0 0 0
SMALL
GASTEIGER

@<TRIPOS>ATOM
      1 S          -0.0103   -1.5038    0.0000 S.3     1  UNL1       -0.1607
      2 C           0.7160    1.0305   -0.2749 C.3     1  UNL1       -0.0433
      3 C          -0.7019    1.0401    0.2750 C.3     1  UNL1       -0.0433
      4 C           1.3328   -0.2925    0.1460 C.3     1  UNL1       -0.0063
      5 C          -1.3366   -0.2743   -0.1461 C.3     1  UNL1       -0.0063
      6 H           0.6983    1.1131   -1.3691 H       1  UNL1        0.0273
      7 H           1.2990    1.8752    0.1060 H       1  UNL1        0.0273
      8 H          -0.6830    1.1224    1.3692 H       1  UNL1        0.0273
      9 H          -1.2733    1.8929   -0.1058 H       1  UNL1        0.0273
     10 H           2.1824   -0.5673   -0.4848 H       1  UNL1        0.0376
     11 H           1.6640   -0.2582    1.1886 H       1  UNL1        0.0376
     12 H          -2.1901   -0.5373    0.4845 H       1  UNL1        0.0376
     13 H          -1.6672   -0.2353   -1.1887 H       1  UNL1        0.0376
@<TRIPOS>BOND
     1     1     4    1
     2     1     5    1
     3     2     3    1
     4     2     4    1
     5     2     6    1
     6     2     7    1
     7     3     5    1
     8     3     8    1
     9     3     9    1
    10     4    10    1
    11     4    11    1
    12     5    12    1
    13     5    13    1
