@<TRIPOS>MOLECULE
6484228
 17 17 0 0 0
SMALL
GASTEIGER

@<TRIPOS>ATOM
      1 S           1.0947    0.0000    0.0403 S.O2    1  UNL1       -0.0286
      2 O           1.2811   -0.0001    1.4780 O.2     1  UNL1       -0.1743
      3 O           2.2307    0.0000   -0.8603 O.2     1  UNL1       -0.1743
      4 N          -2.0141    0.0000   -0.2731 N.3     1  UNL1       -0.3129
      5 C           0.0499    1.3744   -0.3890 C.3     1  UNL1        0.0782
      6 C           0.0498   -1.3742   -0.3893 C.3     1  UNL1        0.0782
      7 C          -1.3461    1.2169    0.1966 C.3     1  UNL1        0.0153
      8 C          -1.3460   -1.2170    0.1968 C.3     1  UNL1        0.0153
      9 H           0.0151    1.4308   -1.4822 H       1  UNL1        0.0512
     10 H           0.5323    2.2806   -0.0105 H       1  UNL1        0.0512
     11 H           0.5324   -2.2806   -0.0113 H       1  UNL1        0.0512
     12 H           0.0147   -1.4303   -1.4825 H       1  UNL1        0.0512
     13 H          -1.3107    1.2271    1.2927 H       1  UNL1        0.0440
     14 H          -1.9495    2.0792   -0.1081 H       1  UNL1        0.0440
     15 H          -1.9494   -2.0793   -0.1077 H       1  UNL1        0.0440
     16 H          -1.3104   -1.2270    1.2929 H       1  UNL1        0.0440
     17 H          -2.9730    0.0000    0.0751 H       1  UNL1        0.1220
@<TRIPOS>BOND
     1     1     2    2
     2     1     3    2
     3     1     5    1
     4     1     6    1
     5     4     7    1
     6     4     8    1
     7     4    17    1
     8     5     7    1
     9     5     9    1
    10     5    10    1
    11     6     8    1
    12     6    11    1
    13     6    12    1
    14     7    13    1
    15     7    14    1
    16     8    15    1
    17     8    16    1
