@<TRIPOS>MOLECULE
abscisic_acid
 39 39 0 0 0
SMALL
GASTEIGER

@<TRIPOS>ATOM
      1 O          -0.1461   -1.2388    1.2500 O.3     1  UNL1       -0.3796
      2 O          -4.6354    1.1292   -0.6772 O.2     1  UNL1       -0.2927
      3 O           4.4588    0.1375    1.4768 O.3     1  UNL1       -0.4775
      4 O           4.4111   -1.5866   -0.0114 O.2     1  UNL1       -0.2458
      5 C          -1.8087   -1.1821   -0.5359 C.3     1  UNL1        0.0084
      6 C          -0.8886   -0.3343    0.4202 C.3     1  UNL1        0.1111
      7 C          -2.7709   -0.2439   -1.2936 C.3     1  UNL1        0.0182
      8 C          -1.7108    0.6150    1.2928 C.2     1  UNL1       -0.0339
      9 C          -2.6417   -2.2308    0.2522 C.3     1  UNL1       -0.0562
     10 C          -0.9825   -1.9828   -1.5708 C.3     1  UNL1       -0.0562
     11 C          -3.5388    0.6686   -0.3627 C.2     1  UNL1        0.1568
     12 C           0.1399    0.4707   -0.3362 C.2     1  UNL1       -0.0480
     13 C          -2.9255    1.0601    0.9296 C.2     1  UNL1       -0.0172
     14 C          -1.0978    1.0863    2.5869 C.3     1  UNL1       -0.0404
     15 C           1.4637    0.2754   -0.2228 C.2     1  UNL1       -0.0595
     16 C           2.5259    1.0124   -0.9149 C.2     1  UNL1       -0.0439
     17 C           2.1010    2.0927   -1.8761 C.3     1  UNL1       -0.0395
     18 C           3.8033    0.6619   -0.6636 C.2     1  UNL1        0.0252
     19 C           4.2431   -0.4104    0.2567 C.2     1  UNL1        0.3298
     20 H          -3.4995   -0.8348   -1.8627 H       1  UNL1        0.0351
     21 H          -2.2350    0.3899   -2.0096 H       1  UNL1        0.0351
     22 H          -3.2277   -1.7813    1.0595 H       1  UNL1        0.0236
     23 H          -3.3452   -2.7493   -0.4102 H       1  UNL1        0.0236
     24 H          -1.9994   -2.9982    0.6984 H       1  UNL1        0.0236
     25 H          -0.4417   -1.3263   -2.2605 H       1  UNL1        0.0236
     26 H          -0.2514   -2.6343   -1.0798 H       1  UNL1        0.0236
     27 H          -1.6327   -2.6186   -2.1834 H       1  UNL1        0.0236
     28 H          -0.2400    1.2451   -0.9977 H       1  UNL1        0.0604
     29 H          -3.4954    1.7406    1.5533 H       1  UNL1        0.0653
     30 H          -0.7434   -1.6025    1.9252 H       1  UNL1        0.2111
     31 H          -1.7200    1.8361    3.0877 H       1  UNL1        0.0275
     32 H          -0.1195    1.5436    2.4076 H       1  UNL1        0.0275
     33 H          -0.9715    0.2506    3.2821 H       1  UNL1        0.0275
     34 H           1.8087   -0.5064    0.4462 H       1  UNL1        0.0618
     35 H           2.9712    2.5660   -2.3444 H       1  UNL1        0.0278
     36 H           1.5428    2.8803   -1.3590 H       1  UNL1        0.0278
     37 H           1.4831    1.6817   -2.6815 H       1  UNL1        0.0278
     38 H           4.6137    1.1839   -1.1655 H       1  UNL1        0.0691
     39 H           4.7609   -0.5291    2.1301 H       1  UNL1        0.2954
@<TRIPOS>BOND
     1     1     6    1
     2     1    30    1
     3     2    11    2
     4     3    19    1
     5     3    39    1
     6     4    19    2
     7     5     6    1
     8     5     7    1
     9     5     9    1
    10     5    10    1
    11     6     8    1
    12     6    12    1
    13     7    11    1
    14     7    20    1
    15     7    21    1
    16     8    13    2
    17     8    14    1
    18     9    22    1
    19     9    23    1
    20     9    24    1
    21    10    25    1
    22    10    26    1
    23    10    27    1
    24    11    13    1
    25    12    15    2
    26    12    28    1
    27    13    29    1
    28    14    31    1
    29    14    32    1
    30    14    33    1
    31    15    16    1
    32    15    34    1
    33    16    17    1
    34    16    18    2
    35    17    35    1
    36    17    36    1
    37    17    37    1
    38    18    19    1
    39    18    38    1
