@<TRIPOS>MOLECULE
acetylcholine
 26 25 0 0 0
SMALL
GASTEIGER

@<TRIPOS>ATOM
      1 O           1.4880   -0.6322    0.0086 O.3     1  UNL1       -0.4594
      2 O           2.7234    1.3199   -0.0030 O.2     1  UNL1       -0.2512
      3 N          -2.1928   -0.0171   -0.0025 N.4     1  UNL1        0.2393
      4 C          -0.9044   -0.8267    0.0274 C.3     1  UNL1        0.0042
      5 C          -2.2148    0.8556   -1.2492 C.3     1  UNL1       -0.0417
      6 C          -3.3853   -0.9624   -0.0238 C.3     1  UNL1       -0.0417
      7 C          -2.2666    0.8650    1.2355 C.3     1  UNL1       -0.0417
      8 C           0.2808    0.1183    0.0172 C.3     1  UNL1        0.1320
      9 C           2.6437    0.0989   -0.0012 C.2     1  UNL1        0.3041
     10 C           3.8280   -0.8193   -0.0089 C.3     1  UNL1        0.0332
     11 H          -0.9090   -1.4550    0.9261 H       1  UNL1        0.0849
     12 H          -0.8924   -1.4893   -0.8466 H       1  UNL1        0.0849
     13 H          -1.9631    0.2385   -2.1168 H       1  UNL1        0.0778
     14 H          -3.2275    1.2568   -1.3612 H       1  UNL1        0.0778
     15 H          -1.5236    1.6946   -1.1381 H       1  UNL1        0.0778
     16 H          -3.3493   -1.5831    0.8765 H       1  UNL1        0.0778
     17 H          -4.3038   -0.3682   -0.0405 H       1  UNL1        0.0778
     18 H          -3.3170   -1.5838   -0.9217 H       1  UNL1        0.0778
     19 H          -2.0785    0.2479    2.1190 H       1  UNL1        0.0778
     20 H          -1.5472    1.6840    1.1609 H       1  UNL1        0.0778
     21 H          -3.2743    1.2905    1.2864 H       1  UNL1        0.0778
     22 H           0.2952    0.7486   -0.8759 H       1  UNL1        0.0752
     23 H           0.3009    0.7512    0.9090 H       1  UNL1        0.0752
     24 H           3.8072   -1.4432   -0.9059 H       1  UNL1        0.0342
     25 H           3.8223   -1.4387    0.8916 H       1  UNL1        0.0342
     26 H           4.7469   -0.2262   -0.0182 H       1  UNL1        0.0342
@<TRIPOS>UNITY_ATOM_ATTR
3 1
charge 1
@<TRIPOS>BOND
     1     1     8    1
     2     1     9    1
     3     2     9    2
     4     3     4    1
     5     3     5    1
     6     3     6    1
     7     3     7    1
     8     4     8    1
     9     4    11    1
    10     4    12    1
    11     5    13    1
    12     5    14    1
    13     5    15    1
    14     6    16    1
    15     6    17    1
    16     6    18    1
    17     7    19    1
    18     7    20    1
    19     7    21    1
    20     8    22    1
    21     8    23    1
    22     9    10    1
    23    10    24    1
    24    10    25    1
    25    10    26    1
