@<TRIPOS>MOLECULE
agmatine
 23 22 0 0 0
SMALL
GASTEIGER

@<TRIPOS>ATOM
      1 N           1.1021   -0.1467   -0.3306 N.pl3   1  UNL1       -0.1138
      2 N          -4.0359   -1.0376    0.3871 N.3     1  UNL1       -0.3300
      3 N           3.0050   -1.4693   -0.2978 N.pl3   1  UNL1       -0.2893
      4 N           3.1643    0.5968    0.6514 N.pl3   1  UNL1       -0.2893
      5 C          -0.9762    1.1439   -0.4360 C.3     1  UNL1       -0.0175
      6 C          -1.8095    0.0369    0.2218 C.3     1  UNL1       -0.0377
      7 C           0.4780    1.1289    0.0246 C.3     1  UNL1        0.1047
      8 C          -3.2743    0.0465   -0.2208 C.3     1  UNL1       -0.0068
      9 C           2.3464   -0.2996    0.0004 C.cat   1  UNL1        0.3765
     10 H          -1.4160    2.1205   -0.2017 H       1  UNL1        0.0297
     11 H          -1.0154    1.0244   -1.5258 H       1  UNL1        0.0297
     12 H          -1.3758   -0.9422   -0.0171 H       1  UNL1        0.0278
     13 H          -1.7582    0.1486    1.3125 H       1  UNL1        0.0278
     14 H           1.0040    1.9582   -0.4636 H       1  UNL1        0.0693
     15 H           0.5122    1.2852    1.1097 H       1  UNL1        0.0693
     16 H          -3.7354    1.0041    0.0461 H       1  UNL1        0.0422
     17 H          -3.3310   -0.0523   -1.3103 H       1  UNL1        0.0422
     18 H          -5.0146   -0.9583    0.1142 H       1  UNL1        0.1182
     19 H          -4.0130   -0.9453    1.4018 H       1  UNL1        0.1182
     20 H           2.5333   -2.2281   -0.7777 H       1  UNL1        0.2546
     21 H           3.9776   -1.6091   -0.0469 H       1  UNL1        0.2546
     22 H           4.1301    0.3671    0.8595 H       1  UNL1        0.2546
     23 H           2.8397    1.5114    0.9444 H       1  UNL1        0.2546
@<TRIPOS>BOND
     1     1     7    1
     2     1     9    2
     3     2     8    1
     4     2    18    1
     5     2    19    1
     6     3     9    1
     7     3    20    1
     8     3    21    1
     9     4     9    1
    10     4    22    1
    11     4    23    1
    12     5     6    1
    13     5     7    1
    14     5    10    1
    15     5    11    1
    16     6     8    1
    17     6    12    1
    18     6    13    1
    19     7    14    1
    20     7    15    1
    21     8    16    1
    22     8    17    1
