@<TRIPOS>MOLECULE
auxin_iaa
 22 23 0 0 0
SMALL
GASTEIGER

@<TRIPOS>ATOM
      1 O          -4.0377    0.8285    0.1738 O.3     1  UNL1       -0.4804
      2 O          -2.5001    0.3540   -1.4277 O.2     1  UNL1       -0.2507
      3 N           0.9398   -2.0456   -0.1506 N.ar    1  UNL1       -0.3604
      4 C           0.5734    0.1113    0.2860 C.ar    1  UNL1        0.0033
      5 C          -0.6348   -0.6146    0.4815 C.ar    1  UNL1       -0.0118
      6 C           1.5454   -0.8099   -0.1103 C.ar    1  UNL1        0.0467
      7 C          -0.3777   -1.9377    0.2053 C.ar    1  UNL1        0.0064
      8 C          -1.9364   -0.0592    0.9049 C.3     1  UNL1        0.0718
      9 C           0.9345    1.4678    0.4086 C.ar    1  UNL1       -0.0523
     10 C           2.8658   -0.4408   -0.3911 C.ar    1  UNL1       -0.0378
     11 C           2.2515    1.8515    0.1307 C.ar    1  UNL1       -0.0611
     12 C           3.2006    0.9102   -0.2628 C.ar    1  UNL1       -0.0598
     13 C          -2.8243    0.3846   -0.2485 C.2     1  UNL1        0.3091
     14 H          -1.7838    0.8058    1.5605 H       1  UNL1        0.0427
     15 H          -2.4899   -0.8153    1.4751 H       1  UNL1        0.0427
     16 H          -1.0124   -2.8126    0.2291 H       1  UNL1        0.0810
     17 H           1.4019   -2.9072   -0.4063 H       1  UNL1        0.1653
     18 H           0.2070    2.2150    0.7129 H       1  UNL1        0.0624
     19 H           3.6054   -1.1729   -0.6976 H       1  UNL1        0.0638
     20 H           2.5357    2.8964    0.2231 H       1  UNL1        0.0618
     21 H           4.2179    1.2302   -0.4736 H       1  UNL1        0.0618
     22 H          -4.6033    1.1131   -0.5754 H       1  UNL1        0.2951
@<TRIPOS>BOND
     1     1    13    1
     2     1    22    1
     3     2    13    2
     4     3     6   ar
     5     3     7   ar
     6     3    17    1
     7     4     5   ar
     8     4     6   ar
     9     4     9   ar
    10     5     7   ar
    11     5     8    1
    12     6    10   ar
    13     7    16    1
    14     8    13    1
    15     8    14    1
    16     8    15    1
    17     9    11   ar
    18     9    18    1
    19    10    12   ar
    20    10    19    1
    21    11    12   ar
    22    11    20    1
    23    12    21    1
