@<TRIPOS>MOLECULE
cadaverine
 21 20 0 0 0
SMALL
GASTEIGER

@<TRIPOS>ATOM
      1 N          -3.7146    0.3527   -0.0057 N.3     1  UNL1       -0.3300
      2 N           3.7145    0.3527    0.0060 N.3     1  UNL1       -0.3300
      3 C           0.0001   -0.4853   -0.0001 C.3     1  UNL1       -0.0508
      4 C          -1.2638    0.3774   -0.0115 C.3     1  UNL1       -0.0406
      5 C           1.2638    0.3774    0.0112 C.3     1  UNL1       -0.0406
      6 C          -2.5228   -0.4874    0.0143 C.3     1  UNL1       -0.0069
      7 C           2.5228   -0.4874   -0.0142 C.3     1  UNL1       -0.0069
      8 H           0.0061   -1.1366   -0.8826 H       1  UNL1        0.0266
      9 H          -0.0060   -1.1365    0.8825 H       1  UNL1        0.0266
     10 H          -1.2636    1.0110   -0.9075 H       1  UNL1        0.0277
     11 H          -1.2557    1.0475    0.8576 H       1  UNL1        0.0277
     12 H           1.2635    1.0112    0.9071 H       1  UNL1        0.0277
     13 H           1.2557    1.0472   -0.8580 H       1  UNL1        0.0277
     14 H          -2.5397   -1.1113    0.9144 H       1  UNL1        0.0422
     15 H          -2.5436   -1.1580   -0.8514 H       1  UNL1        0.0422
     16 H           2.5400   -1.1113   -0.9141 H       1  UNL1        0.0422
     17 H           2.5434   -1.1580    0.8514 H       1  UNL1        0.0422
     18 H          -3.7024    0.9445   -0.8356 H       1  UNL1        0.1182
     19 H          -3.6987    0.9885    0.7911 H       1  UNL1        0.1182
     20 H           3.7022    0.9446    0.8359 H       1  UNL1        0.1182
     21 H           3.6988    0.9884   -0.7908 H       1  UNL1        0.1182
@<TRIPOS>BOND
     1     1     6    1
     2     1    18    1
     3     1    19    1
     4     2     7    1
     5     2    20    1
     6     2    21    1
     7     3     4    1
     8     3     5    1
     9     3     8    1
    10     3     9    1
    11     4     6    1
    12     4    10    1
    13     4    11    1
    14     5     7    1
    15     5    12    1
    16     5    13    1
    17     6    14    1
    18     6    15    1
    19     7    16    1
    20     7    17    1
