@<TRIPOS>MOLECULE
gibberellic_acid
 47 51 0 0 0
SMALL
GASTEIGER

@<TRIPOS>ATOM
      1 O          -1.1261    1.4832   -1.0094 O.3     1  UNL1       -0.4528
      2 O           4.4880    0.5458   -1.2781 O.3     1  UNL1       -0.3843
      3 O          -4.0734   -0.4457    1.6369 O.3     1  UNL1       -0.3867
      4 O          -2.8281    0.9455   -2.4672 O.2     1  UNL1       -0.2501
      5 O           0.3975   -3.2870   -1.0849 O.3     1  UNL1       -0.4804
      6 O          -0.4344   -3.0278    1.0215 O.2     1  UNL1       -0.2507
      7 C           1.1834   -0.3293   -0.0112 C.3     1  UNL1       -0.0025
      8 C           0.7075    1.0373    0.6087 C.3     1  UNL1        0.0099
      9 C          -1.2281   -0.3770    0.3683 C.3     1  UNL1        0.0345
     10 C          -0.7999    1.0871    0.3403 C.3     1  UNL1        0.1397
     11 C          -0.1030   -1.0981   -0.3955 C.3     1  UNL1        0.0705
     12 C           2.1327   -0.0873   -1.1963 C.3     1  UNL1       -0.0130
     13 C          -2.5918   -0.2285   -0.3166 C.3     1  UNL1        0.1017
     14 C           3.3186    0.5706   -0.4804 C.3     1  UNL1        0.0874
     15 C           2.1454   -1.0407    0.9733 C.3     1  UNL1       -0.0224
     16 C           1.4727    2.2624    0.0827 C.3     1  UNL1       -0.0428
     17 C           2.9781    2.0194   -0.0866 C.3     1  UNL1       -0.0197
     18 C           3.4421   -0.3033    0.7543 C.2     1  UNL1       -0.0449
     19 C          -1.6372    1.9259    1.2704 C.2     1  UNL1       -0.0418
     20 C          -3.5789    0.4773    0.6698 C.3     1  UNL1        0.0893
     21 C          -2.2367    0.7716   -1.4144 C.2     1  UNL1        0.3171
     22 C          -0.0785   -2.5553   -0.0478 C.2     1  UNL1        0.3088
     23 C          -3.1397   -1.5268   -0.8949 C.3     1  UNL1       -0.0462
     24 C          -2.9366    1.6213    1.4308 C.2     1  UNL1       -0.0550
     25 C           4.5265   -0.4408    1.5264 C.2     1  UNL1       -0.0967
     26 H           0.8542    0.9964    1.6976 H       1  UNL1        0.0348
     27 H          -1.3187   -0.7626    1.3927 H       1  UNL1        0.0362
     28 H          -0.2770   -1.0148   -1.4764 H       1  UNL1        0.0423
     29 H           1.7050    0.5474   -1.9807 H       1  UNL1        0.0302
     30 H           2.4289   -1.0270   -1.6823 H       1  UNL1        0.0302
     31 H           2.3038   -2.0904    0.7020 H       1  UNL1        0.0316
     32 H           1.8018   -0.9908    2.0113 H       1  UNL1        0.0316
     33 H           1.3073    3.1230    0.7419 H       1  UNL1        0.0270
     34 H           1.0767    2.5623   -0.8954 H       1  UNL1        0.0270
     35 H           3.3605    2.7203   -0.8402 H       1  UNL1        0.0296
     36 H           3.4956    2.2918    0.8427 H       1  UNL1        0.0296
     37 H          -1.1998    2.7745    1.7842 H       1  UNL1        0.0609
     38 H          -4.4385    0.8777    0.1179 H       1  UNL1        0.0649
     39 H          -2.5259   -1.8958   -1.7235 H       1  UNL1        0.0241
     40 H          -3.1911   -2.3138   -0.1357 H       1  UNL1        0.0241
     41 H          -4.1489   -1.3769   -1.2952 H       1  UNL1        0.0241
     42 H          -3.5563    2.2175    2.0931 H       1  UNL1        0.0596
     43 H           4.2830    0.9858   -2.1208 H       1  UNL1        0.2106
     44 H           5.4382    0.1079    1.3174 H       1  UNL1        0.0535
     45 H           4.5197   -1.1038    2.3849 H       1  UNL1        0.0535
     46 H          -4.6843   -1.0500    1.1823 H       1  UNL1        0.2102
     47 H           0.4235   -4.2450   -0.8755 H       1  UNL1        0.2951
@<TRIPOS>BOND
     1     1    10    1
     2     1    21    1
     3     2    14    1
     4     2    43    1
     5     3    20    1
     6     3    46    1
     7     4    21    2
     8     5    22    1
     9     5    47    1
    10     6    22    2
    11     7     8    1
    12     7    11    1
    13     7    12    1
    14     7    15    1
    15     8    10    1
    16     8    16    1
    17     8    26    1
    18     9    10    1
    19     9    11    1
    20     9    13    1
    21     9    27    1
    22    10    19    1
    23    11    22    1
    24    11    28    1
    25    12    14    1
    26    12    29    1
    27    12    30    1
    28    13    20    1
    29    13    21    1
    30    13    23    1
    31    14    17    1
    32    14    18    1
    33    15    18    1
    34    15    31    1
    35    15    32    1
    36    16    17    1
    37    16    33    1
    38    16    34    1
    39    17    35    1
    40    17    36    1
    41    18    25    2
    42    19    24    2
    43    19    37    1
    44    20    24    1
    45    20    38    1
    46    23    39    1
    47    23    40    1
    48    23    41    1
    49    24    42    1
    50    25    44    1
    51    25    45    1
