@<TRIPOS>MOLECULE
glutamate
 19 18 0 0 0
SMALL
GASTEIGER

@<TRIPOS>ATOM
      1 O           1.8673    1.4740   -1.0053 O.3     1  GLU1       -0.4795
      2 OE1        -3.1163    0.7071    1.0794 O.3     1  GLU1       -0.4806
      3 OXT         2.5878    0.7410    1.0154 O.2     1  GLU1       -0.2493
      4 OE2        -2.9184   -0.2347   -0.9789 O.2     1  GLU1       -0.2510
      5 N           1.6806   -1.7797    0.5894 N.3     1  GLU1       -0.3184
      6 CB         -0.1238   -0.6649   -0.7146 C.3     1  GLU1       -0.0173
      7 CA          1.3856   -0.7970   -0.4512 C.3     1  GLU1        0.1037
      8 CG         -0.9609   -0.0832    0.4279 C.3     1  GLU1        0.0467
      9 C           2.0137    0.5241   -0.0440 C.2     1  GLU1        0.3217
     10 CD         -2.4156    0.1132    0.0818 C.2     1  GLU1        0.3048
     11 HB1        -0.5282   -1.6486   -0.9894 H       1  GLU1        0.0291
     12 HB2        -0.2668   -0.0337   -1.6022 H       1  GLU1        0.0291
     13 HA          1.8836   -1.1268   -1.3708 H       1  GLU1        0.0574
     14 HG1        -0.9129   -0.7486    1.2969 H       1  GLU1        0.0378
     15 HG2        -0.5643    0.8967    0.7156 H       1  GLU1        0.0378
     16 H1          2.6879   -1.9245    0.6494 H       1  GLU1        0.1190
     17 H2          1.2786   -2.6805    0.3327 H       1  GLU1        0.1190
     18 H           2.2713    2.3275   -0.7398 H       1  GLU1        0.2951
     19 HE1        -4.0615    0.8235    0.8441 H       1  GLU1        0.2951
@<TRIPOS>BOND
     1     1     9    1
     2     1    18    1
     3     2    10    1
     4     2    19    1
     5     3     9    2
     6     4    10    2
     7     5     7    1
     8     5    16    1
     9     5    17    1
    10     6     7    1
    11     6     8    1
    12     6    11    1
    13     6    12    1
    14     7     9    1
    15     7    13    1
    16     8    10    1
    17     8    14    1
    18     8    15    1
