@<TRIPOS>MOLECULE
histamine
 17 17 0 0 0
SMALL
GASTEIGER

@<TRIPOS>ATOM
      1 N          -1.1204    1.1144   -0.0890 N.ar    1  UNL1       -0.3482
      2 N           3.5306   -0.0416   -0.1154 N.3     1  UNL1       -0.3296
      3 N          -2.2425   -0.8021   -0.0893 N.ar    1  UNL1       -0.2440
      4 C           1.2012    0.4470    0.5175 C.3     1  UNL1        0.0013
      5 C          -0.2479    0.1410    0.2335 C.ar    1  UNL1        0.0365
      6 C           2.1319   -0.3296   -0.4145 C.3     1  UNL1       -0.0015
      7 C          -0.9277   -1.0254    0.2345 C.ar    1  UNL1        0.0484
      8 C          -2.3252    0.4962   -0.2774 C.ar    1  UNL1        0.0935
      9 H           1.3834    1.5246    0.4147 H       1  UNL1        0.0340
     10 H           1.4098    0.1864    1.5631 H       1  UNL1        0.0340
     11 H           1.9291   -0.0699   -1.4598 H       1  UNL1        0.0425
     12 H           1.9687   -1.4087   -0.3163 H       1  UNL1        0.0425
     13 H          -0.9352    2.1052   -0.1776 H       1  UNL1        0.1665
     14 H          -0.5656   -2.0205    0.4474 H       1  UNL1        0.0848
     15 H          -3.2160    1.0450   -0.5485 H       1  UNL1        0.1027
     16 H           3.7265   -0.2756    0.8573 H       1  UNL1        0.1182
     17 H           3.6981    0.9604   -0.2001 H       1  UNL1        0.1182
@<TRIPOS>BOND
     1     1     5   ar
     2     1     8   ar
     3     1    13    1
     4     2     6    1
     5     2    16    1
     6     2    17    1
     7     3     7   ar
     8     3     8   ar
     9     4     5    1
    10     4     6    1
    11     4     9    1
    12     4    10    1
    13     5     7   ar
    14     6    11    1
    15     6    12    1
    16     7    14    1
    17     8    15    1
