@<TRIPOS>MOLECULE
jasmonic_acid
 33 33 0 0 0
SMALL
GASTEIGER

@<TRIPOS>ATOM
      1 O           1.6783    2.1309    0.1601 O.2     1  UNL1       -0.2971
      2 O          -4.5172   -1.1090    0.7588 O.3     1  UNL1       -0.4806
      3 O          -3.6108   -0.9779   -1.3249 O.2     1  UNL1       -0.2510
      4 C          -1.2097    0.0995   -0.1134 C.3     1  UNL1       -0.0208
      5 C           0.0921    0.3616    0.6620 C.3     1  UNL1        0.0242
      6 C          -1.7588    1.5032   -0.3804 C.3     1  UNL1       -0.0424
      7 C          -0.5345    2.3187   -0.7770 C.3     1  UNL1        0.0064
      8 C           0.5541    1.6619    0.0332 C.2     1  UNL1        0.1370
      9 C          -2.1974   -0.7707    0.6498 C.3     1  UNL1        0.0483
     10 C           1.1143   -0.7500    0.5134 C.3     1  UNL1       -0.0250
     11 C           2.3925   -0.4217    1.2292 C.2     1  UNL1       -0.0873
     12 C          -3.4844   -0.9587   -0.1099 C.2     1  UNL1        0.3050
     13 C           3.5911   -0.3662    0.6300 C.2     1  UNL1       -0.0882
     14 C           3.8054   -0.6254   -0.8318 C.3     1  UNL1       -0.0376
     15 C           4.0848   -2.0961   -1.0993 C.3     1  UNL1       -0.0618
     16 H          -0.9806   -0.3690   -1.0814 H       1  UNL1        0.0313
     17 H          -0.1235    0.5702    1.7181 H       1  UNL1        0.0383
     18 H          -2.2081    1.9247    0.5279 H       1  UNL1        0.0272
     19 H          -2.5168    1.5229   -1.1692 H       1  UNL1        0.0272
     20 H          -0.6449    3.3726   -0.5137 H       1  UNL1        0.0342
     21 H          -0.3045    2.2033   -1.8399 H       1  UNL1        0.0342
     22 H          -1.7752   -1.7632    0.8403 H       1  UNL1        0.0380
     23 H          -2.4217   -0.3089    1.6192 H       1  UNL1        0.0380
     24 H           1.2611   -0.9839   -0.5440 H       1  UNL1        0.0314
     25 H           0.7134   -1.6668    0.9639 H       1  UNL1        0.0314
     26 H           2.3356   -0.2370    2.2989 H       1  UNL1        0.0569
     27 H           4.4675   -0.1414    1.2320 H       1  UNL1        0.0569
     28 H           2.9764   -0.2695   -1.4509 H       1  UNL1        0.0305
     29 H           4.6733   -0.0359   -1.1531 H       1  UNL1        0.0305
     30 H          -5.3715   -1.2335    0.2930 H       1  UNL1        0.2951
     31 H           3.2284   -2.7219   -0.8271 H       1  UNL1        0.0233
     32 H           4.2911   -2.2527   -2.1630 H       1  UNL1        0.0233
     33 H           4.9554   -2.4444   -0.5331 H       1  UNL1        0.0233
@<TRIPOS>BOND
     1     1     8    2
     2     2    12    1
     3     2    30    1
     4     3    12    2
     5     4     5    1
     6     4     6    1
     7     4     9    1
     8     4    16    1
     9     5     8    1
    10     5    10    1
    11     5    17    1
    12     6     7    1
    13     6    18    1
    14     6    19    1
    15     7     8    1
    16     7    20    1
    17     7    21    1
    18     9    12    1
    19     9    22    1
    20     9    23    1
    21    10    11    1
    22    10    24    1
    23    10    25    1
    24    11    13    2
    25    11    26    1
    26    13    14    1
    27    13    27    1
    28    14    15    1
    29    14    28    1
    30    14    29    1
    31    15    31    1
    32    15    32    1
    33    15    33    1
