@<TRIPOS>MOLECULE
melatonin
 33 34 0 0 0
SMALL
GASTEIGER

@<TRIPOS>ATOM
      1 O          -1.3636    3.0246    0.2970 O.3     1  UNL1       -0.4951
      2 O           3.7267    0.6738    0.6109 O.2     1  UNL1       -0.2761
      3 N          -2.0703   -2.3711   -0.3715 N.ar    1  UNL1       -0.3604
      4 N           2.3445   -0.6100   -0.7547 N.am    1  UNL1       -0.3152
      5 C          -0.1101   -1.7944    0.4955 C.ar    1  UNL1       -0.0208
      6 C          -0.8590   -0.6075    0.2605 C.ar    1  UNL1        0.0063
      7 C           1.2503   -1.8778    1.0635 C.3     1  UNL1       -0.0101
      8 C          -2.0848   -0.9972   -0.2836 C.ar    1  UNL1        0.0470
      9 C          -0.8813   -2.8618    0.0970 C.ar    1  UNL1        0.0060
     10 C           2.3739   -1.8247    0.0151 C.3     1  UNL1        0.0156
     11 C          -0.6110    0.7654    0.4590 C.ar    1  UNL1       -0.0105
     12 C          -3.0788   -0.0792   -0.6406 C.ar    1  UNL1       -0.0343
     13 C          -1.5962    1.6950    0.1067 C.ar    1  UNL1        0.1208
     14 C          -2.8103    1.2770   -0.4346 C.ar    1  UNL1       -0.0180
     15 C           3.0269    0.5423   -0.3899 C.2     1  UNL1        0.2099
     16 C           2.8456    1.6577   -1.3843 C.3     1  UNL1        0.0121
     17 C          -0.1024    3.3879    0.8542 C.3     1  UNL1        0.0788
     18 H           1.3526   -2.8116    1.6311 H       1  UNL1        0.0329
     19 H           1.3966   -1.0685    1.7903 H       1  UNL1        0.0329
     20 H          -0.6921   -3.9263    0.1033 H       1  UNL1        0.0810
     21 H           3.3454   -1.9117    0.5137 H       1  UNL1        0.0465
     22 H           2.2780   -2.6566   -0.6913 H       1  UNL1        0.0465
     23 H          -2.8284   -2.9350   -0.7304 H       1  UNL1        0.1653
     24 H           0.3442    1.0364    0.8902 H       1  UNL1        0.0661
     25 H          -4.0243   -0.4036   -1.0620 H       1  UNL1        0.0639
     26 H          -3.5659    2.0117   -0.7032 H       1  UNL1        0.0655
     27 H           1.7948   -0.6075   -1.6092 H       1  UNL1        0.1487
     28 H           3.0749    2.6144   -0.9071 H       1  UNL1        0.0322
     29 H           3.5238    1.5023   -2.2277 H       1  UNL1        0.0322
     30 H           1.8151    1.6892   -1.7492 H       1  UNL1        0.0322
     31 H          -0.0896    4.4796    0.9383 H       1  UNL1        0.0660
     32 H           0.7249    3.1112    0.1938 H       1  UNL1        0.0660
     33 H           0.0217    2.9900    1.8672 H       1  UNL1        0.0660
@<TRIPOS>BOND
     1     1    13    1
     2     1    17    1
     3     2    15    2
     4     3     8   ar
     5     3     9   ar
     6     3    23    1
     7     4    10    1
     8     4    15   am
     9     4    27    1
    10     5     6   ar
    11     5     7    1
    12     5     9   ar
    13     6     8   ar
    14     6    11   ar
    15     7    10    1
    16     7    18    1
    17     7    19    1
    18     8    12   ar
    19     9    20    1
    20    10    21    1
    21    10    22    1
    22    11    13   ar
    23    11    24    1
    24    12    14   ar
    25    12    25    1
    26    13    14   ar
    27    14    26    1
    28    15    16    1
    29    16    28    1
    30    16    29    1
    31    16    30    1
    32    17    31    1
    33    17    32    1
    34    17    33    1
