@<TRIPOS>MOLECULE
norepinephrine
 23 23 0 0 0
SMALL
GASTEIGER

@<TRIPOS>ATOM
      1 O           2.3618    0.0602   -1.5274 O.3     1  UNL1       -0.3859
      2 O          -2.1939    2.0747   -0.0553 O.3     1  UNL1       -0.5033
      3 O          -3.6370   -0.2830    0.2306 O.3     1  UNL1       -0.5033
      4 N           4.1403    0.3312    0.7225 N.3     1  UNL1       -0.3274
      5 C           1.9844   -0.4416   -0.2384 C.3     1  UNL1        0.0925
      6 C           0.4990   -0.3964   -0.1147 C.ar    1  UNL1       -0.0143
      7 C           2.6864    0.3826    0.8592 C.3     1  UNL1        0.0235
      8 C          -0.1660    0.8295   -0.1423 C.ar    1  UNL1       -0.0109
      9 C          -0.2253   -1.5798    0.0291 C.ar    1  UNL1       -0.0524
     10 C          -1.5555    0.8718   -0.0261 C.ar    1  UNL1        0.1586
     11 C          -1.6146   -1.5375    0.1452 C.ar    1  UNL1       -0.0162
     12 C          -2.2797   -0.3117    0.1176 C.ar    1  UNL1        0.1582
     13 H           2.3369   -1.4796   -0.1896 H       1  UNL1        0.0656
     14 H           2.3999    0.0152    1.8513 H       1  UNL1        0.0451
     15 H           2.4004    1.4381    0.7993 H       1  UNL1        0.0451
     16 H           0.3828    1.7595   -0.2667 H       1  UNL1        0.0659
     17 H           0.2779   -2.5427    0.0525 H       1  UNL1        0.0622
     18 H          -2.1666   -2.4670    0.2565 H       1  UNL1        0.0655
     19 H           3.3332    0.0426   -1.5712 H       1  UNL1        0.2103
     20 H           4.4561   -0.6347    0.8003 H       1  UNL1        0.1183
     21 H           4.5701    0.8359    1.4966 H       1  UNL1        0.1183
     22 H          -3.1495    1.9163    0.0374 H       1  UNL1        0.2923
     23 H          -3.9665   -1.1935    0.3216 H       1  UNL1        0.2923
@<TRIPOS>BOND
     1     1     5    1
     2     1    19    1
     3     2    10    1
     4     2    22    1
     5     3    12    1
     6     3    23    1
     7     4     7    1
     8     4    20    1
     9     4    21    1
    10     5     6    1
    11     5     7    1
    12     5    13    1
    13     6     8   ar
    14     6     9   ar
    15     7    14    1
    16     7    15    1
    17     8    10   ar
    18     8    16    1
    19     9    11   ar
    20     9    17    1
    21    10    12   ar
    22    11    12   ar
    23    11    18    1
