@<TRIPOS>MOLECULE
octopamine
 22 22 0 0 0
SMALL
GASTEIGER

@<TRIPOS>ATOM
      1 O          -2.1802    0.0432    1.5273 O.3     1  UNL1       -0.3859
      2 O           3.8261   -0.2960   -0.2013 O.3     1  UNL1       -0.5068
      3 N          -3.9708   -0.1741   -0.7196 N.3     1  UNL1       -0.3274
      4 C          -1.7525    0.4361    0.2163 C.3     1  UNL1        0.0924
      5 C          -0.2781    0.2427    0.1063 C.ar    1  UNL1       -0.0177
      6 C          -2.5287   -0.3774   -0.8386 C.3     1  UNL1        0.0235
      7 C           0.5565    1.3417   -0.0966 C.ar    1  UNL1       -0.0526
      8 C           0.2664   -1.0377    0.2055 C.ar    1  UNL1       -0.0526
      9 C           1.9357    1.1603   -0.2003 C.ar    1  UNL1       -0.0198
     10 C           1.6456   -1.2190    0.1020 C.ar    1  UNL1       -0.0198
     11 C           2.4802   -0.1200   -0.1010 C.ar    1  UNL1        0.1169
     12 H          -2.0040    1.4988    0.1084 H       1  UNL1        0.0656
     13 H          -2.3488   -1.4506   -0.7149 H       1  UNL1        0.0451
     14 H          -2.2033   -0.0986   -1.8475 H       1  UNL1        0.0451
     15 H           0.1479    2.3456   -0.1762 H       1  UNL1        0.0622
     16 H          -0.3633   -1.9064    0.3764 H       1  UNL1        0.0622
     17 H           2.5751    2.0248   -0.3582 H       1  UNL1        0.0654
     18 H           2.0644   -2.2183    0.1831 H       1  UNL1        0.0654
     19 H          -3.1454    0.1577    1.5628 H       1  UNL1        0.2103
     20 H          -4.4454   -0.6784   -1.4673 H       1  UNL1        0.1183
     21 H          -4.1887    0.8120   -0.8563 H       1  UNL1        0.1183
     22 H           4.2476    0.5696   -0.3398 H       1  UNL1        0.2921
@<TRIPOS>BOND
     1     1     4    1
     2     1    19    1
     3     2    11    1
     4     2    22    1
     5     3     6    1
     6     3    20    1
     7     3    21    1
     8     4     5    1
     9     4     6    1
    10     4    12    1
    11     5     7   ar
    12     5     8   ar
    13     6    13    1
    14     6    14    1
    15     7     9   ar
    16     7    15    1
    17     8    10   ar
    18     8    16    1
    19     9    11   ar
    20     9    17    1
    21    10    11   ar
    22    10    18    1
