@<TRIPOS>MOLECULE
phenethylamine
 20 20 0 0 0
SMALL
GASTEIGER

@<TRIPOS>ATOM
      1 N           3.8236   -0.0118   -0.2192 N.3     1  UNL1       -0.3297
      2 C           1.5175    0.0087    0.6824 C.3     1  UNL1       -0.0153
      3 C           0.0660    0.0036    0.3386 C.ar    1  UNL1       -0.0462
      4 C           2.4073    0.0095   -0.5686 C.3     1  UNL1       -0.0029
      5 C          -0.6165    1.2092    0.1765 C.ar    1  UNL1       -0.0585
      6 C          -0.6088   -1.2067    0.1797 C.ar    1  UNL1       -0.0585
      7 C          -1.9740    1.2046   -0.1444 C.ar    1  UNL1       -0.0615
      8 C          -1.9663   -1.2114   -0.1414 C.ar    1  UNL1       -0.0615
      9 C          -2.6488   -0.0058   -0.3035 C.ar    1  UNL1       -0.0617
     10 H           1.7462    0.8836    1.3057 H       1  UNL1        0.0325
     11 H           1.7509   -0.8645    1.3064 H       1  UNL1        0.0325
     12 H           2.2014    0.8974   -1.1780 H       1  UNL1        0.0425
     13 H           2.1854   -0.8662   -1.1894 H       1  UNL1        0.0425
     14 H          -0.1018    2.1589    0.2958 H       1  UNL1        0.0620
     15 H          -0.0880   -2.1528    0.3015 H       1  UNL1        0.0620
     16 H          -2.5054    2.1432   -0.2712 H       1  UNL1        0.0618
     17 H          -2.4916   -2.1538   -0.2658 H       1  UNL1        0.0618
     18 H          -3.7056   -0.0095   -0.5538 H       1  UNL1        0.0618
     19 H           4.0520    0.8136    0.3334 H       1  UNL1        0.1182
     20 H           4.3824    0.0493   -1.0692 H       1  UNL1        0.1182
@<TRIPOS>BOND
     1     1     4    1
     2     1    19    1
     3     1    20    1
     4     2     3    1
     5     2     4    1
     6     2    10    1
     7     2    11    1
     8     3     5   ar
     9     3     6   ar
    10     4    12    1
    11     4    13    1
    12     5     7   ar
    13     5    14    1
    14     6     8   ar
    15     6    15    1
    16     7     9   ar
    17     7    16    1
    18     8     9   ar
    19     8    17    1
    20     9    18    1
