@<TRIPOS>MOLECULE
putrescine
 18 17 0 0 0
SMALL
GASTEIGER

@<TRIPOS>ATOM
      1 N           3.1257    0.2481    0.0054 N.3     1  UNL1       -0.3300
      2 N          -3.1163   -0.2239    0.0078 N.3     1  UNL1       -0.3300
      3 C           0.6460    0.3720   -0.0086 C.3     1  UNL1       -0.0395
      4 C          -0.6714   -0.4103   -0.0119 C.3     1  UNL1       -0.0395
      5 C           1.8878   -0.5221    0.0050 C.3     1  UNL1       -0.0069
      6 C          -1.8718    0.5361    0.0024 C.3     1  UNL1       -0.0069
      7 H           0.6775    1.0221   -0.8926 H       1  UNL1        0.0278
      8 H           0.6680    1.0315    0.8686 H       1  UNL1        0.0278
      9 H          -0.7095   -1.0528   -0.9004 H       1  UNL1        0.0278
     10 H          -0.7034   -1.0686    0.8653 H       1  UNL1        0.0278
     11 H           1.8730   -1.1663    0.8909 H       1  UNL1        0.0422
     12 H           1.8821   -1.1798   -0.8709 H       1  UNL1        0.0422
     13 H          -1.8544    1.1884   -0.8771 H       1  UNL1        0.0422
     14 H          -1.8418    1.1783    0.8891 H       1  UNL1        0.0422
     15 H           3.1397    0.8691    0.8138 H       1  UNL1        0.1182
     16 H           3.1481    0.8564   -0.8125 H       1  UNL1        0.1182
     17 H          -3.1366   -0.8417    0.8184 H       1  UNL1        0.1182
     18 H          -3.1485   -0.8335   -0.8087 H       1  UNL1        0.1182
@<TRIPOS>BOND
     1     1     5    1
     2     1    15    1
     3     1    16    1
     4     2     6    1
     5     2    17    1
     6     2    18    1
     7     3     4    1
     8     3     5    1
     9     3     7    1
    10     3     8    1
    11     4     6    1
    12     4     9    1
    13     4    10    1
    14     5    11    1
    15     5    12    1
    16     6    13    1
    17     6    14    1
