@<TRIPOS>MOLECULE
salicylic_acid
 16 16 0 0 0
SMALL
GASTEIGER

@<TRIPOS>ATOM
      1 O           0.2626   -2.1794   -0.1866 O.3     1  UNL1       -0.5059
      2 O           2.2319    1.3945   -0.4792 O.3     1  UNL1       -0.4770
      3 O           2.4659   -0.6561    0.4730 O.2     1  UNL1       -0.2450
      4 C           0.2790    0.2094    0.0344 C.ar    1  UNL1        0.1001
      5 C          -0.4094   -0.9983   -0.0809 C.ar    1  UNL1        0.1308
      6 C          -0.4275    1.4075    0.1399 C.ar    1  UNL1       -0.0442
      7 C          -1.8043   -1.0077   -0.0907 C.ar    1  UNL1       -0.0194
      8 C          -1.8223    1.3979    0.1300 C.ar    1  UNL1       -0.0608
      9 C          -2.5108    0.1904    0.0146 C.ar    1  UNL1       -0.0583
     10 C           1.7349    0.2418    0.0455 C.2     1  UNL1        0.3404
     11 H           0.0796    2.3632    0.2437 H       1  UNL1        0.0627
     12 H          -2.3539   -1.9410   -0.1801 H       1  UNL1        0.0654
     13 H          -2.3728    2.3304    0.2150 H       1  UNL1        0.0618
     14 H          -3.5968    0.1831    0.0077 H       1  UNL1        0.0619
     15 H          -0.3805   -2.9057   -0.2573 H       1  UNL1        0.2922
     16 H           3.2128    1.4077   -0.4679 H       1  UNL1        0.2954
@<TRIPOS>BOND
     1     1     5    1
     2     1    15    1
     3     2    10    1
     4     2    16    1
     5     3    10    2
     6     4     5   ar
     7     4     6   ar
     8     4    10    1
     9     5     7   ar
    10     6     8   ar
    11     6    11    1
    12     7     9   ar
    13     7    12    1
    14     8     9   ar
    15     8    13    1
    16     9    14    1
