@<TRIPOS>MOLECULE
serotonin
 25 26 0 0 0
SMALL
GASTEIGER

@<TRIPOS>ATOM
      1 O           2.7352    2.4620    0.0975 O.3     1  UNL1       -0.5067
      2 N           0.1121   -2.3478   -0.1123 N.ar    1  UNL1       -0.3604
      3 N          -4.2402    1.5678   -0.2880 N.3     1  UNL1       -0.3297
      4 C          -1.1857   -0.6040    0.3372 C.ar    1  UNL1       -0.0211
      5 C           0.1487   -0.1361    0.1781 C.ar    1  UNL1        0.0063
      6 C          -2.3744    0.2167    0.6440 C.3     1  UNL1       -0.0133
      7 C           0.9428   -1.2499   -0.1030 C.ar    1  UNL1        0.0470
      8 C          -1.1761   -1.9673    0.1523 C.ar    1  UNL1        0.0059
      9 C          -3.0873    0.7369   -0.6178 C.3     1  UNL1       -0.0029
     10 C           0.7591    1.1320    0.2466 C.ar    1  UNL1       -0.0108
     11 C           2.3223   -1.1586   -0.3198 C.ar    1  UNL1       -0.0343
     12 C           2.1379    1.2386    0.0320 C.ar    1  UNL1        0.1176
     13 C           2.9057    0.1096   -0.2468 C.ar    1  UNL1       -0.0182
     14 H          -3.0828   -0.3736    1.2406 H       1  UNL1        0.0326
     15 H          -2.0842    1.0654    1.2769 H       1  UNL1        0.0326
     16 H          -1.9688   -2.7018    0.1846 H       1  UNL1        0.0810
     17 H           0.4109   -3.2968   -0.2895 H       1  UNL1        0.1653
     18 H          -3.4225   -0.1074   -1.2312 H       1  UNL1        0.0425
     19 H          -2.3888    1.3212   -1.2284 H       1  UNL1        0.0425
     20 H           0.1635    2.0149    0.4625 H       1  UNL1        0.0661
     21 H           2.9207   -2.0371   -0.5368 H       1  UNL1        0.0639
     22 H           3.9762    0.2086   -0.4111 H       1  UNL1        0.0655
     23 H          -4.6455    1.9395   -1.1461 H       1  UNL1        0.1182
     24 H          -3.9363    2.3734    0.2574 H       1  UNL1        0.1182
     25 H           2.0601    3.1324    0.2995 H       1  UNL1        0.2921
@<TRIPOS>BOND
     1     1    12    1
     2     1    25    1
     3     2     7   ar
     4     2     8   ar
     5     2    17    1
     6     3     9    1
     7     3    23    1
     8     3    24    1
     9     4     5   ar
    10     4     6    1
    11     4     8   ar
    12     5     7   ar
    13     5    10   ar
    14     6     9    1
    15     6    14    1
    16     6    15    1
    17     7    11   ar
    18     8    16    1
    19     9    18    1
    20     9    19    1
    21    10    12   ar
    22    10    20    1
    23    11    13   ar
    24    11    21    1
    25    12    13   ar
    26    13    22    1
