@<TRIPOS>MOLECULE
spermidine
 29 28 0 0 0
SMALL
GASTEIGER

@<TRIPOS>ATOM
      1 N          -0.6319   -0.3844   -0.0183 N.3     1  UNL1       -0.3159
      2 N           5.5892    0.3086    0.0235 N.3     1  UNL1       -0.3300
      3 N          -5.5584   -0.3239    0.0223 N.3     1  UNL1       -0.3299
      4 C           1.8180   -0.4840   -0.0209 C.3     1  UNL1       -0.0393
      5 C           0.5847    0.4191   -0.0145 C.3     1  UNL1       -0.0041
      6 C           3.1069    0.3444   -0.0079 C.3     1  UNL1       -0.0395
      7 C          -1.8149    0.4644   -0.0019 C.3     1  UNL1       -0.0030
      8 C          -3.1075   -0.3547    0.0028 C.3     1  UNL1       -0.0281
      9 C           4.3794   -0.5050    0.0140 C.3     1  UNL1       -0.0069
     10 C          -4.3656    0.5156    0.0010 C.3     1  UNL1       -0.0058
     11 H           1.8089   -1.1265   -0.9103 H       1  UNL1        0.0278
     12 H           1.8013   -1.1439    0.8556 H       1  UNL1        0.0278
     13 H           0.6096    1.0740   -0.8941 H       1  UNL1        0.0424
     14 H           0.6105    1.0545    0.8790 H       1  UNL1        0.0424
     15 H           3.1218    0.9958   -0.8912 H       1  UNL1        0.0278
     16 H           3.0997    1.0036    0.8698 H       1  UNL1        0.0278
     17 H          -1.8024    1.1026    0.8901 H       1  UNL1        0.0424
     18 H          -1.8160    1.1228   -0.8795 H       1  UNL1        0.0424
     19 H          -0.6483   -0.9841   -0.8427 H       1  UNL1        0.1219
     20 H          -3.1166   -1.0073    0.8860 H       1  UNL1        0.0290
     21 H          -3.1207   -1.0126   -0.8765 H       1  UNL1        0.0290
     22 H           4.3813   -1.1500    0.8995 H       1  UNL1        0.0422
     23 H           4.4032   -1.1620   -0.8623 H       1  UNL1        0.0422
     24 H          -4.3832    1.1527   -0.8899 H       1  UNL1        0.0422
     25 H          -4.3713    1.1688    0.8800 H       1  UNL1        0.0422
     26 H           5.5755    0.9290    0.8323 H       1  UNL1        0.1182
     27 H           5.5958    0.9179   -0.7939 H       1  UNL1        0.1182
     28 H          -5.5763   -0.9160   -0.8071 H       1  UNL1        0.1182
     29 H          -6.3875    0.2664   -0.0304 H       1  UNL1        0.1182
@<TRIPOS>BOND
     1     1     5    1
     2     1     7    1
     3     1    19    1
     4     2     9    1
     5     2    26    1
     6     2    27    1
     7     3    10    1
     8     3    28    1
     9     3    29    1
    10     4     5    1
    11     4     6    1
    12     4    11    1
    13     4    12    1
    14     5    13    1
    15     5    14    1
    16     6     9    1
    17     6    15    1
    18     6    16    1
    19     7     8    1
    20     7    17    1
    21     7    18    1
    22     8    10    1
    23     8    20    1
    24     8    21    1
    25     9    22    1
    26     9    23    1
    27    10    24    1
    28    10    25    1
