@<TRIPOS>MOLECULE
spermine
 40 39 0 0 0
SMALL
GASTEIGER

@<TRIPOS>ATOM
      1 N           3.1077    0.3677   -0.0218 N.3     1  UNL1       -0.3159
      2 N          -3.1092   -0.3632   -0.0212 N.3     1  UNL1       -0.3159
      3 N           8.0341    0.3370    0.0499 N.3     1  UNL1       -0.3299
      4 N          -8.0357   -0.3745    0.0459 N.3     1  UNL1       -0.3299
      5 C           0.6572    0.4524   -0.0399 C.3     1  UNL1       -0.0393
      6 C          -0.6266   -0.3840   -0.0368 C.3     1  UNL1       -0.0393
      7 C           1.8959   -0.4433   -0.0275 C.3     1  UNL1       -0.0041
      8 C          -1.9044    0.4577   -0.0213 C.3     1  UNL1       -0.0041
      9 C           4.2957   -0.4740    0.0003 C.3     1  UNL1       -0.0030
     10 C          -4.3043    0.4683    0.0039 C.3     1  UNL1       -0.0030
     11 C           5.5832    0.3529    0.0150 C.3     1  UNL1       -0.0281
     12 C          -5.5848   -0.3695    0.0133 C.3     1  UNL1       -0.0281
     13 C           6.8465   -0.5097    0.0194 C.3     1  UNL1       -0.0058
     14 C          -6.8554    0.4824    0.0208 C.3     1  UNL1       -0.0058
     15 H           0.6646    1.1104    0.8381 H       1  UNL1        0.0278
     16 H           0.6683    1.0969   -0.9277 H       1  UNL1        0.0278
     17 H          -0.6225   -1.0453    0.8393 H       1  UNL1        0.0278
     18 H          -0.6319   -1.0333   -0.9219 H       1  UNL1        0.0278
     19 H           1.8807   -1.0965   -0.9086 H       1  UNL1        0.0424
     20 H           1.8683   -1.0808    0.8646 H       1  UNL1        0.0424
     21 H          -1.9019    1.1184   -0.8972 H       1  UNL1        0.0424
     22 H          -1.8906    1.0944    0.8719 H       1  UNL1        0.0424
     23 H           4.3065   -1.1306   -0.8787 H       1  UNL1        0.0424
     24 H           4.2814   -1.1143    0.8909 H       1  UNL1        0.0424
     25 H          -4.3200    1.1290   -0.8718 H       1  UNL1        0.0424
     26 H          -4.2964    1.1042    0.8977 H       1  UNL1        0.0424
     27 H           3.1256    0.9691   -0.8449 H       1  UNL1        0.1219
     28 H          -3.1200   -0.9608   -0.8471 H       1  UNL1        0.1219
     29 H           5.5980    1.0128   -0.8629 H       1  UNL1        0.0290
     30 H           5.5828    1.0037    0.8996 H       1  UNL1        0.0290
     31 H          -5.5931   -1.0252   -0.8677 H       1  UNL1        0.0290
     32 H          -5.5797   -1.0247    0.8948 H       1  UNL1        0.0290
     33 H           6.8507   -1.1647    0.8971 H       1  UNL1        0.0422
     34 H           6.8736   -1.1448   -0.8726 H       1  UNL1        0.0422
     35 H          -6.8659    1.1329    0.9017 H       1  UNL1        0.0422
     36 H          -6.8870    1.1216   -0.8682 H       1  UNL1        0.0422
     37 H           8.8671   -0.2481    0.0013 H       1  UNL1        0.1182
     38 H           8.0536    0.9309   -0.7782 H       1  UNL1        0.1182
     39 H          -8.8736    0.2038   -0.0006 H       1  UNL1        0.1182
     40 H          -8.0494   -0.9645   -0.7851 H       1  UNL1        0.1182
@<TRIPOS>BOND
     1     1     7    1
     2     1     9    1
     3     1    27    1
     4     2     8    1
     5     2    10    1
     6     2    28    1
     7     3    13    1
     8     3    37    1
     9     3    38    1
    10     4    14    1
    11     4    39    1
    12     4    40    1
    13     5     6    1
    14     5     7    1
    15     5    15    1
    16     5    16    1
    17     6     8    1
    18     6    17    1
    19     6    18    1
    20     7    19    1
    21     7    20    1
    22     8    21    1
    23     8    22    1
    24     9    11    1
    25     9    23    1
    26     9    24    1
    27    10    12    1
    28    10    25    1
    29    10    26    1
    30    11    13    1
    31    11    29    1
    32    11    30    1
    33    12    14    1
    34    12    31    1
    35    12    32    1
    36    13    33    1
    37    13    34    1
    38    14    35    1
    39    14    36    1
