@<TRIPOS>MOLECULE
thyroxine_t4
 35 36 0 0 0
SMALL
GASTEIGER

@<TRIPOS>ATOM
      1 I           0.1456   -0.7021   -3.2374 I       1  UNL1       -0.0400
      2 I           0.6342   -2.5402    2.5616 I       1  UNL1       -0.0400
      3 I           6.5942   -0.2322   -0.4190 I       1  UNL1       -0.0399
      4 I           1.8786    3.3285    1.1090 I       1  UNL1       -0.0399
      5 O           1.4387   -1.8017   -0.4835 O.3     1  UNL1       -0.4539
      6 O          -3.2006    2.1698   -0.5863 O.3     1  UNL1       -0.4795
      7 OXT        -5.3952    1.8399   -1.0559 O.2     1  UNL1       -0.2492
      8 O           4.9129    2.3590    0.5438 O.3     1  UNL1       -0.5047
      9 N          -5.6938    0.6242    1.3862 N.3     1  UNL1       -0.3181
     10 C          -4.0749   -0.8508    0.2824 C.3     1  UNL1       -0.0020
     11 CA         -4.3742    0.5785    0.7604 C.3     1  UNL1        0.1072
     12 C          -2.5991   -1.1048    0.0776 C.ar    1  UNL1       -0.0432
     13 C          -1.8410   -1.5827    1.1336 C.ar    1  UNL1       -0.0418
     14 C          -2.0343   -0.8548   -1.1620 C.ar    1  UNL1       -0.0418
     15 C           0.1052   -1.5708   -0.2980 C.ar    1  UNL1        0.1545
     16 C          -0.6725   -1.0897   -1.3512 C.ar    1  UNL1        0.0569
     17 C          -0.4791   -1.8174    0.9443 C.ar    1  UNL1        0.0569
     18 C          -4.4040    1.5710   -0.3892 C.2     1  UNL1        0.3220
     19 C           2.3093   -0.7591   -0.2258 C.ar    1  UNL1        0.1307
     20 C           1.8017    0.4555    0.2026 C.ar    1  UNL1       -0.0026
     21 C           3.6685   -0.9539   -0.4023 C.ar    1  UNL1       -0.0026
     22 C           4.5469    0.0980   -0.1425 C.ar    1  UNL1        0.0592
     23 C           2.6802    1.5074    0.4622 C.ar    1  UNL1        0.0592
     24 C           4.0527    1.3287    0.2896 C.ar    1  UNL1        0.1432
     25 H          -4.6165   -1.0719   -0.6477 H       1  UNL1        0.0334
     26 H          -4.4434   -1.5837    1.0139 H       1  UNL1        0.0334
     27 HA         -3.6447    0.9214    1.5033 H       1  UNL1        0.0577
     28 H          -2.3090   -1.7676    2.0973 H       1  UNL1        0.0632
     29 H          -2.6522   -0.4826   -1.9753 H       1  UNL1        0.0632
     30 H1         -5.7088    0.0053    2.1963 H       1  UNL1        0.1190
     31 H2         -6.3949    0.2563    0.7433 H       1  UNL1        0.1190
     32 H           0.7444    0.6444    0.3516 H       1  UNL1        0.0666
     33 H           4.0312   -1.9213   -0.7398 H       1  UNL1        0.0666
     34 H          -3.2310    2.8182   -1.3217 H       1  UNL1        0.2951
     35 H           5.8199    2.0536    0.3702 H       1  UNL1        0.2922
@<TRIPOS>BOND
     1     1    16    1
     2     2    17    1
     3     3    22    1
     4     4    23    1
     5     5    15    1
     6     5    19    1
     7     6    18    1
     8     6    34    1
     9     7    18    2
    10     8    24    1
    11     8    35    1
    12     9    11    1
    13     9    30    1
    14     9    31    1
    15    10    11    1
    16    10    12    1
    17    10    25    1
    18    10    26    1
    19    11    18    1
    20    11    27    1
    21    12    13   ar
    22    12    14   ar
    23    13    17   ar
    24    13    28    1
    25    14    16   ar
    26    14    29    1
    27    15    16   ar
    28    15    17   ar
    29    19    20   ar
    30    19    21   ar
    31    20    23   ar
    32    20    32    1
    33    21    22   ar
    34    21    33    1
    35    22    24   ar
    36    23    24   ar
