@<TRIPOS>MOLECULE
triiodothyronine_t3
 35 36 0 0 0
SMALL
GASTEIGER

@<TRIPOS>ATOM
      1 I           0.3791   -0.6950   -3.2651 I       1  UNL1       -0.0400
      2 I           0.9319   -2.5718    2.5158 I       1  UNL1       -0.0400
      3 I           2.2185    3.2966    1.0804 I       1  UNL1       -0.0399
      4 O           1.7007   -1.8219   -0.5358 O.3     1  UNL1       -0.4539
      5 O          -2.9055    2.1893   -0.5510 O.3     1  UNL1       -0.4795
      6 OXT        -5.1091    1.8808   -0.9922 O.2     1  UNL1       -0.2492
      7 O           5.2573    2.2728    0.4569 O.3     1  UNL1       -0.5057
      8 N          -5.3843    0.6531    1.4466 N.3     1  UNL1       -0.3181
      9 C          -3.7935   -0.8290    0.3119 C.3     1  UNL1       -0.0020
     10 CA         -4.0739    0.5999    0.8024 C.3     1  UNL1        0.1072
     11 C          -2.3229   -1.0942    0.0852 C.ar    1  UNL1       -0.0432
     12 C          -1.5544   -1.5848    1.1278 C.ar    1  UNL1       -0.0418
     13 C          -1.7732   -0.8416   -1.1606 C.ar    1  UNL1       -0.0418
     14 C           0.3719   -1.5809   -0.3305 C.ar    1  UNL1        0.1545
     15 C          -0.4161   -1.0869   -1.3700 C.ar    1  UNL1        0.0569
     16 C          -0.1974   -1.8299    0.9183 C.ar    1  UNL1        0.0569
     17 C          -4.1111    1.5995   -0.3408 C.2     1  UNL1        0.3220
     18 C           2.5836   -0.7883   -0.2841 C.ar    1  UNL1        0.1297
     19 C           2.0930    0.4281    0.1587 C.ar    1  UNL1       -0.0027
     20 C           3.9384   -0.9944   -0.4804 C.ar    1  UNL1       -0.0158
     21 C           2.9844    1.4703    0.4128 C.ar    1  UNL1        0.0582
     22 C           4.8297    0.0479   -0.2264 C.ar    1  UNL1       -0.0157
     23 C           4.3528    1.2803    0.2202 C.ar    1  UNL1        0.1301
     24 H          -4.3497   -1.0399   -0.6119 H       1  UNL1        0.0334
     25 H          -4.1581   -1.5630    1.0441 H       1  UNL1        0.0334
     26 HA         -3.3314    0.9322    1.5371 H       1  UNL1        0.0577
     27 H          -2.0107   -1.7717    2.0967 H       1  UNL1        0.0632
     28 H          -2.3990   -0.4592   -1.9630 H       1  UNL1        0.0632
     29 H1         -5.3935    0.0296    2.2533 H       1  UNL1        0.1190
     30 H2         -6.0973    0.2950    0.8114 H       1  UNL1        0.1190
     31 H           1.0396    0.6259    0.3234 H       1  UNL1        0.0666
     32 H           4.3109   -1.9533   -0.8280 H       1  UNL1        0.0655
     33 H           5.8928   -0.1163   -0.3814 H       1  UNL1        0.0655
     34 H          -2.9405    2.8424   -1.2822 H       1  UNL1        0.2951
     35 H           6.1524    1.9447    0.2645 H       1  UNL1        0.2922
@<TRIPOS>BOND
     1     1    15    1
     2     2    16    1
     3     3    21    1
     4     4    14    1
     5     4    18    1
     6     5    17    1
     7     5    34    1
     8     6    17    2
     9     7    23    1
    10     7    35    1
    11     8    10    1
    12     8    29    1
    13     8    30    1
    14     9    10    1
    15     9    11    1
    16     9    24    1
    17     9    25    1
    18    10    17    1
    19    10    26    1
    20    11    12   ar
    21    11    13   ar
    22    12    16   ar
    23    12    27    1
    24    13    15   ar
    25    13    28    1
    26    14    15   ar
    27    14    16   ar
    28    18    19   ar
    29    18    20   ar
    30    19    21   ar
    31    19    31    1
    32    20    22   ar
    33    20    32    1
    34    21    23   ar
    35    22    23   ar
    36    22    33    1
