@<TRIPOS>MOLECULE
tryptamine
 24 25 0 0 0
SMALL
GASTEIGER

@<TRIPOS>ATOM
      1 N           0.7303   -2.0393   -0.1435 N.ar    1  UNL1       -0.3604
      2 N          -4.2684    1.0035   -0.2859 N.3     1  UNL1       -0.3297
      3 C          -0.8691   -0.5756    0.3323 C.ar    1  UNL1       -0.0212
      4 C           0.3562    0.1343    0.1918 C.ar    1  UNL1        0.0029
      5 C          -2.1904    0.0038    0.6488 C.3     1  UNL1       -0.0133
      6 C           1.3435   -0.8073   -0.1066 C.ar    1  UNL1        0.0467
      7 C          -0.6068   -1.9095    0.1204 C.ar    1  UNL1        0.0059
      8 C          -2.9781    0.4059   -0.6128 C.3     1  UNL1       -0.0029
      9 C           0.7212    1.4917    0.2903 C.ar    1  UNL1       -0.0523
     10 C           2.6829   -0.4579   -0.3122 C.ar    1  UNL1       -0.0378
     11 C           2.0573    1.8559    0.0869 C.ar    1  UNL1       -0.0611
     12 C           3.0213    0.8944   -0.2095 C.ar    1  UNL1       -0.0598
     13 H          -2.7801   -0.7193    1.2279 H       1  UNL1        0.0326
     14 H          -2.0655    0.8797    1.2983 H       1  UNL1        0.0326
     15 H          -1.2499   -2.7785    0.1329 H       1  UNL1        0.0810
     16 H           1.2001   -2.9128   -0.3376 H       1  UNL1        0.1653
     17 H          -3.1457   -0.4748   -1.2435 H       1  UNL1        0.0425
     18 H          -2.3949    1.1200   -1.2062 H       1  UNL1        0.0425
     19 H          -0.0177    2.2543    0.5192 H       1  UNL1        0.0624
     20 H           3.4342   -1.2057   -0.5431 H       1  UNL1        0.0638
     21 H           2.3446    2.9014    0.1611 H       1  UNL1        0.0618
     22 H           4.0533    1.1995   -0.3637 H       1  UNL1        0.0618
     23 H          -4.7264    1.3091   -1.1435 H       1  UNL1        0.1182
     24 H          -4.1242    1.8414    0.2761 H       1  UNL1        0.1182
@<TRIPOS>BOND
     1     1     6   ar
     2     1     7   ar
     3     1    16    1
     4     2     8    1
     5     2    23    1
     6     2    24    1
     7     3     4   ar
     8     3     5    1
     9     3     7   ar
    10     4     6   ar
    11     4     9   ar
    12     5     8    1
    13     5    13    1
    14     5    14    1
    15     6    10   ar
    16     7    15    1
    17     8    17    1
    18     8    18    1
    19     9    11   ar
    20     9    19    1
    21    10    12   ar
    22    10    20    1
    23    11    12   ar
    24    11    21    1
    25    12    22    1
