@<TRIPOS>MOLECULE
tyramine
 21 21 0 0 0
SMALL
GASTEIGER

@<TRIPOS>ATOM
      1 O          -3.5985    0.0061    0.3965 O.3     1  UNL1       -0.5068
      2 N           4.2131    0.0140    0.3305 N.3     1  UNL1       -0.3297
      3 C           1.9446   -0.0085   -0.6547 C.3     1  UNL1       -0.0153
      4 C           0.4797   -0.0044   -0.3767 C.ar    1  UNL1       -0.0459
      5 C           2.7850   -0.0078    0.6288 C.3     1  UNL1       -0.0029
      6 C          -0.2083   -1.2105   -0.2445 C.ar    1  UNL1       -0.0551
      7 C          -0.2026    1.2055   -0.2491 C.ar    1  UNL1       -0.0551
      8 C          -1.5787   -1.2068    0.0154 C.ar    1  UNL1       -0.0199
      9 C          -1.5731    1.2093    0.0108 C.ar    1  UNL1       -0.0199
     10 C          -2.2612    0.0031    0.1431 C.ar    1  UNL1        0.1169
     11 H           2.1998   -0.8830   -1.2683 H       1  UNL1        0.0325
     12 H           2.2016    0.8640   -1.2706 H       1  UNL1        0.0325
     13 H           2.5618   -0.8956    1.2314 H       1  UNL1        0.0425
     14 H           2.5401    0.8646    1.2453 H       1  UNL1        0.0425
     15 H           0.3123   -2.1598   -0.3398 H       1  UNL1        0.0621
     16 H           0.3224    2.1519   -0.3481 H       1  UNL1        0.0621
     17 H          -2.1030   -2.1532    0.1167 H       1  UNL1        0.0654
     18 H          -2.0992    2.1549    0.1097 H       1  UNL1        0.0654
     19 H           4.4308    0.8355   -0.2324 H       1  UNL1        0.1182
     20 H           4.4523   -0.7909   -0.2475 H       1  UNL1        0.1182
     21 H          -3.9099   -0.9134    0.4568 H       1  UNL1        0.2921
@<TRIPOS>BOND
     1     1    10    1
     2     1    21    1
     3     2     5    1
     4     2    19    1
     5     2    20    1
     6     3     4    1
     7     3     5    1
     8     3    11    1
     9     3    12    1
    10     4     6   ar
    11     4     7   ar
    12     5    13    1
    13     5    14    1
    14     6     8   ar
    15     6    15    1
    16     7     9   ar
    17     7    16    1
    18     8    10   ar
    19     8    17    1
    20     9    10   ar
    21     9    18    1
