@<TRIPOS>MOLECULE
zeatin
 29 30 0 0 0
SMALL
GASTEIGER

@<TRIPOS>ATOM
      1 O           6.0441   -0.2559   -0.1037 O.3     1  UNL1       -0.3907
      2 N           0.4195    0.1241    0.4158 N.pl3   1  UNL1       -0.3238
      3 N          -1.9571   -1.8163    0.1763 N.ar    1  UNL1       -0.3404
      4 N          -1.2625    1.7930    0.0503 N.ar    1  UNL1       -0.2187
      5 N          -4.0593   -1.1706   -0.1876 N.ar    1  UNL1       -0.2164
      6 N          -3.6111    1.2173   -0.2729 N.ar    1  UNL1       -0.2144
      7 C          -1.9174   -0.4535    0.0947 C.ar    1  UNL1        0.1253
      8 C           1.5051    1.0669    0.5215 C.3     1  UNL1        0.0291
      9 C          -0.8994    0.4886    0.1900 C.ar    1  UNL1        0.1479
     10 C           2.7758    0.3211    0.7889 C.2     1  UNL1       -0.0660
     11 C          -3.2343   -0.0762   -0.1315 C.ar    1  UNL1        0.1825
     12 C           3.6528   -0.1601   -0.1137 C.2     1  UNL1       -0.0500
     13 C           4.8709   -0.9225    0.3436 C.3     1  UNL1        0.0651
     14 C          -3.2607   -2.1994    0.0011 C.ar    1  UNL1        0.0963
     15 C           3.5037   -0.0276   -1.6045 C.3     1  UNL1       -0.0416
     16 C          -2.5700    2.0709   -0.1682 C.ar    1  UNL1        0.1205
     17 H           1.3267    1.7628    1.3501 H       1  UNL1        0.0505
     18 H           1.5838    1.6726   -0.3876 H       1  UNL1        0.0505
     19 H           0.6177   -0.8668    0.5064 H       1  UNL1        0.1478
     20 H           2.9823    0.1515    1.8451 H       1  UNL1        0.0588
     21 H          -1.1713   -2.4326    0.3363 H       1  UNL1        0.1669
     22 H           4.8598   -1.9343   -0.0755 H       1  UNL1        0.0604
     23 H           4.9222   -1.0064    1.4343 H       1  UNL1        0.0604
     24 H          -3.5578   -3.2382    0.0223 H       1  UNL1        0.1027
     25 H           4.2880    0.6192   -2.0103 H       1  UNL1        0.0275
     26 H           3.5860   -1.0109   -2.0799 H       1  UNL1        0.0275
     27 H           2.5389    0.3895   -1.9043 H       1  UNL1        0.0275
     28 H          -2.8127    3.1229   -0.2734 H       1  UNL1        0.1048
     29 H           6.8037   -0.7869    0.1903 H       1  UNL1        0.2098
@<TRIPOS>BOND
     1     1    13    1
     2     1    29    1
     3     2     8    1
     4     2     9    1
     5     2    19    1
     6     3     7   ar
     7     3    14   ar
     8     3    21    1
     9     4     9   ar
    10     4    16   ar
    11     5    11   ar
    12     5    14   ar
    13     6    11   ar
    14     6    16   ar
    15     7     9   ar
    16     7    11   ar
    17     8    10    1
    18     8    17    1
    19     8    18    1
    20    10    12    2
    21    10    20    1
    22    12    13    1
    23    12    15    1
    24    13    22    1
    25    13    23    1
    26    14    24    1
    27    15    25    1
    28    15    26    1
    29    15    27    1
    30    16    28    1
