@<TRIPOS>MOLECULE
9238
 26 28 0 0 0
SMALL
GASTEIGER

@<TRIPOS>ATOM
      1 C          -0.5535   -0.6164   -1.3038 C.3     1  UNL1       -0.0403
      2 C           0.5954    1.3931   -0.3013 C.3     1  UNL1       -0.0403
      3 C           1.1015   -0.9170    0.5761 C.3     1  UNL1       -0.0403
      4 C          -1.1435    0.1403    1.0290 C.3     1  UNL1       -0.0403
      5 C           0.0417    0.7723   -1.5960 C.3     1  UNL1       -0.0473
      6 C           0.5451   -1.5247   -0.7236 C.3     1  UNL1       -0.0473
      7 C          -1.6873   -0.4734   -0.2732 C.3     1  UNL1       -0.0473
      8 C           1.6873    0.4734    0.2732 C.3     1  UNL1       -0.0473
      9 C          -0.5450    1.5247    0.7236 C.3     1  UNL1       -0.0473
     10 C          -0.0418   -0.7723    1.5960 C.3     1  UNL1       -0.0473
     11 H          -0.9460   -1.0536   -2.2286 H       1  UNL1        0.0301
     12 H           1.0176    2.3812   -0.5150 H       1  UNL1        0.0301
     13 H           1.8827   -1.5674    0.9847 H       1  UNL1        0.0301
     14 H          -1.9545    0.2398    1.7589 H       1  UNL1        0.0301
     15 H           0.8413    0.6875   -2.3422 H       1  UNL1        0.0271
     16 H          -0.7270    1.4263   -2.0258 H       1  UNL1        0.0271
     17 H           0.1384   -2.5241   -0.5254 H       1  UNL1        0.0271
     18 H           1.3532   -1.6488   -1.4549 H       1  UNL1        0.0271
     19 H          -2.4857    0.1592   -0.6803 H       1  UNL1        0.0271
     20 H          -2.1321   -1.4548   -0.0673 H       1  UNL1        0.0271
     21 H           2.5149    0.3834   -0.4411 H       1  UNL1        0.0271
     22 H           2.1028    0.9120    1.1887 H       1  UNL1        0.0271
     23 H          -0.1677    1.9815    1.6469 H       1  UNL1        0.0271
     24 H          -1.3238    2.1915    0.3335 H       1  UNL1        0.0271
     25 H          -0.4584   -1.7588    1.8337 H       1  UNL1        0.0271
     26 H           0.3441   -0.3550    2.5341 H       1  UNL1        0.0271
@<TRIPOS>BOND
     1     1     5    1
     2     1     6    1
     3     1     7    1
     4     1    11    1
     5     2     5    1
     6     2     8    1
     7     2     9    1
     8     2    12    1
     9     3     6    1
    10     3     8    1
    11     3    10    1
    12     3    13    1
    13     4     7    1
    14     4     9    1
    15     4    10    1
    16     4    14    1
    17     5    15    1
    18     5    16    1
    19     6    17    1
    20     6    18    1
    21     7    19    1
    22     7    20    1
    23     8    21    1
    24     8    22    1
    25     9    23    1
    26     9    24    1
    27    10    25    1
    28    10    26    1
