@<TRIPOS>MOLECULE
136121
 15 16 0 0 0
SMALL
GASTEIGER

@<TRIPOS>ATOM
      1 N           0.7280   -0.6726   -0.4445 N.3     1  UNL1       -0.2967
      2 C           0.5669    0.7956   -0.3765 C.3     1  UNL1        0.0232
      3 C           1.5534    0.0802    0.4970 C.3     1  UNL1        0.0148
      4 C          -0.7873    1.1636    0.1350 C.3     1  UNL1       -0.0350
      5 C          -0.4986   -1.2270    0.1564 C.3     1  UNL1       -0.0007
      6 C          -1.5624   -0.1398    0.0325 C.3     1  UNL1       -0.0387
      7 H           0.9054    1.3499   -1.2387 H       1  UNL1        0.0475
      8 H           2.6019    0.1553    0.2389 H       1  UNL1        0.0442
      9 H           1.3498   -0.0220    1.5549 H       1  UNL1        0.0442
     10 H          -1.2538    1.9531   -0.4620 H       1  UNL1        0.0281
     11 H          -0.7274    1.5069    1.1738 H       1  UNL1        0.0281
     12 H          -0.3459   -1.5141    1.2039 H       1  UNL1        0.0427
     13 H          -0.8084   -2.1270   -0.3847 H       1  UNL1        0.0427
     14 H          -2.3428   -0.2221    0.7944 H       1  UNL1        0.0278
     15 H          -2.0409   -0.2047   -0.9528 H       1  UNL1        0.0278
@<TRIPOS>BOND
     1     1     2    1
     2     1     3    1
     3     1     5    1
     4     2     3    1
     5     2     4    1
     6     2     7    1
     7     3     8    1
     8     3     9    1
     9     4     6    1
    10     4    10    1
    11     4    11    1
    12     5     6    1
    13     5    12    1
    14     5    13    1
    15     6    14    1
    16     6    15    1
