@<TRIPOS>MOLECULE
13759526
 24 25 0 0 0
SMALL
GASTEIGER

@<TRIPOS>ATOM
      1 N          -0.0001   -1.2325   -0.5909 N.3     1  UNL1       -0.3021
      2 C           0.0001    1.2217   -0.6580 C.3     1  UNL1       -0.0282
      3 C           0.0000   -0.0675   -1.4813 C.3     1  UNL1        0.0017
      4 C          -1.2861    1.2892    0.1814 C.3     1  UNL1       -0.0479
      5 C           1.2864    1.2890    0.1812 C.3     1  UNL1       -0.0479
      6 C          -1.2335   -1.2652    0.2061 C.3     1  UNL1       -0.0011
      7 C           1.2333   -1.2654    0.2062 C.3     1  UNL1       -0.0011
      8 C          -1.5687    0.0154    0.9777 C.3     1  UNL1       -0.0399
      9 C           1.5687    0.0152    0.9777 C.3     1  UNL1       -0.0399
     10 H           0.0001    2.0814   -1.3402 H       1  UNL1        0.0313
     11 H          -0.8748   -0.1007   -2.1435 H       1  UNL1        0.0429
     12 H           0.8746   -0.1009   -2.1435 H       1  UNL1        0.0429
     13 H          -2.1297    1.4562   -0.5017 H       1  UNL1        0.0269
     14 H          -1.2619    2.1530    0.8558 H       1  UNL1        0.0269
     15 H           1.2625    2.1529    0.8555 H       1  UNL1        0.0269
     16 H           2.1299    1.4556   -0.5020 H       1  UNL1        0.0269
     17 H          -1.2137   -2.1167    0.8974 H       1  UNL1        0.0426
     18 H          -2.0647   -1.4757   -0.4802 H       1  UNL1        0.0426
     19 H           2.0645   -1.4761   -0.4801 H       1  UNL1        0.0426
     20 H           1.2132   -2.1168    0.8976 H       1  UNL1        0.0426
     21 H          -1.0219    0.0395    1.9241 H       1  UNL1        0.0278
     22 H          -2.6283   -0.0019    1.2619 H       1  UNL1        0.0278
     23 H           2.6282   -0.0022    1.2619 H       1  UNL1        0.0278
     24 H           1.0219    0.0395    1.9241 H       1  UNL1        0.0278
@<TRIPOS>BOND
     1     1     3    1
     2     1     6    1
     3     1     7    1
     4     2     3    1
     5     2     4    1
     6     2     5    1
     7     2    10    1
     8     3    11    1
     9     3    12    1
    10     4     8    1
    11     4    13    1
    12     4    14    1
    13     5     9    1
    14     5    15    1
    15     5    16    1
    16     6     8    1
    17     6    17    1
    18     6    18    1
    19     7     9    1
    20     7    19    1
    21     7    20    1
    22     8    21    1
    23     8    22    1
    24     9    23    1
    25     9    24    1
