@<TRIPOS>MOLECULE
136101
 25 26 0 0 0
SMALL
GASTEIGER

@<TRIPOS>ATOM
      1 C           0.0001    1.2438   -0.6349 C.3     1  UNL1       -0.0408
      2 C          -0.0001   -1.2440   -0.6348 C.3     1  UNL1       -0.0408
      3 C          -0.0001   -0.0001   -1.5213 C.3     1  UNL1       -0.0474
      4 C           1.2875    1.2806    0.2049 C.3     1  UNL1       -0.0502
      5 C          -1.2873    1.2808    0.2050 C.3     1  UNL1       -0.0502
      6 C           1.2873   -1.2807    0.2050 C.3     1  UNL1       -0.0502
      7 C          -1.2874   -1.2806    0.2051 C.3     1  UNL1       -0.0502
      8 C           1.5839    0.0000    0.9855 C.3     1  UNL1       -0.0526
      9 C          -1.5838    0.0002    0.9854 C.3     1  UNL1       -0.0526
     10 H           0.0001    2.1332   -1.2783 H       1  UNL1        0.0301
     11 H          -0.0001   -2.1334   -1.2780 H       1  UNL1        0.0301
     12 H          -0.8801    0.0000   -2.1764 H       1  UNL1        0.0271
     13 H           0.8799   -0.0002   -2.1765 H       1  UNL1        0.0271
     14 H           1.2664    2.1332    0.8939 H       1  UNL1        0.0268
     15 H           2.1299    1.4611   -0.4764 H       1  UNL1        0.0268
     16 H          -2.1297    1.4617   -0.4761 H       1  UNL1        0.0268
     17 H          -1.2659    2.1334    0.8942 H       1  UNL1        0.0268
     18 H           2.1297   -1.4615   -0.4762 H       1  UNL1        0.0268
     19 H           1.2661   -2.1332    0.8942 H       1  UNL1        0.0268
     20 H          -1.2663   -2.1331    0.8943 H       1  UNL1        0.0268
     21 H          -2.1298   -1.4613   -0.4761 H       1  UNL1        0.0268
     22 H           2.6386   -0.0001    1.2880 H       1  UNL1        0.0265
     23 H           1.0252    0.0001    1.9252 H       1  UNL1        0.0265
     24 H          -1.0252    0.0001    1.9252 H       1  UNL1        0.0265
     25 H          -2.6385    0.0003    1.2879 H       1  UNL1        0.0265
@<TRIPOS>BOND
     1     1     3    1
     2     1     4    1
     3     1     5    1
     4     1    10    1
     5     2     3    1
     6     2     6    1
     7     2     7    1
     8     2    11    1
     9     3    12    1
    10     3    13    1
    11     4     8    1
    12     4    14    1
    13     4    15    1
    14     5     9    1
    15     5    16    1
    16     5    17    1
    17     6     8    1
    18     6    18    1
    19     6    19    1
    20     7     9    1
    21     7    20    1
    22     7    21    1
    23     8    22    1
    24     8    23    1
    25     9    24    1
    26     9    25    1
