@<TRIPOS>MOLECULE
136508
 22 23 0 0 0
SMALL
GASTEIGER

@<TRIPOS>ATOM
      1 C           0.0147   -0.7721   -0.6292 C.3     1  UNL1       -0.0382
      2 C           0.0152    0.7721   -0.6292 C.3     1  UNL1       -0.0382
      3 C          -1.3540   -1.1942   -0.0984 C.3     1  UNL1       -0.0499
      4 C           1.1858   -1.1869    0.2659 C.3     1  UNL1       -0.0499
      5 C          -1.3527    1.1951   -0.0970 C.3     1  UNL1       -0.0499
      6 C           1.1873    1.1864    0.2647 C.3     1  UNL1       -0.0499
      7 C          -1.8304    0.0002    0.7178 C.3     1  UNL1       -0.0525
      8 C           2.1341   -0.0007    0.2055 C.3     1  UNL1       -0.0525
      9 H           0.1713   -1.1608   -1.6424 H       1  UNL1        0.0303
     10 H           0.1710    1.1606   -1.6425 H       1  UNL1        0.0303
     11 H          -1.3258   -2.1170    0.4885 H       1  UNL1        0.0268
     12 H          -2.0390   -1.3540   -0.9402 H       1  UNL1        0.0268
     13 H           1.6601   -2.1089   -0.0842 H       1  UNL1        0.0268
     14 H           0.8601   -1.3523    1.3000 H       1  UNL1        0.0268
     15 H          -2.0379    1.3570   -0.9383 H       1  UNL1        0.0268
     16 H          -1.3232    2.1171    0.4912 H       1  UNL1        0.0268
     17 H           0.8623    1.3537    1.2987 H       1  UNL1        0.0268
     18 H           1.6626    2.1074   -0.0868 H       1  UNL1        0.0268
     19 H          -2.9156    0.0007    0.8551 H       1  UNL1        0.0265
     20 H          -1.3598   -0.0006    1.7077 H       1  UNL1        0.0265
     21 H           2.8536   -0.0007    1.0290 H       1  UNL1        0.0265
     22 H           2.6895   -0.0016   -0.7397 H       1  UNL1        0.0265
@<TRIPOS>BOND
     1     1     2    1
     2     1     3    1
     3     1     4    1
     4     1     9    1
     5     2     5    1
     6     2     6    1
     7     2    10    1
     8     3     7    1
     9     3    11    1
    10     3    12    1
    11     4     8    1
    12     4    13    1
    13     4    14    1
    14     5     7    1
    15     5    15    1
    16     5    16    1
    17     6     8    1
    18     6    17    1
    19     6    18    1
    20     7    19    1
    21     7    20    1
    22     8    21    1
    23     8    22    1
