@<TRIPOS>MOLECULE
9101
 13 14 0 0 0
SMALL
GASTEIGER

@<TRIPOS>ATOM
      1 C           0.3411    0.7466   -0.3141 C.3     1  UNL1       -0.0379
      2 C           0.3411   -0.7467   -0.3139 C.3     1  UNL1       -0.0379
      3 C           1.4528    0.0000    0.3510 C.3     1  UNL1       -0.0469
      4 C          -1.0674    0.7718    0.1386 C.3     1  UNL1       -0.0497
      5 C          -1.0676   -0.7717    0.1385 C.3     1  UNL1       -0.0497
      6 H           0.4988    1.2520   -1.2565 H       1  UNL1        0.0304
      7 H           0.4989   -1.2522   -1.2563 H       1  UNL1        0.0304
      8 H           2.4229    0.0000   -0.1301 H       1  UNL1        0.0271
      9 H           1.4919    0.0000    1.4333 H       1  UNL1        0.0271
     10 H          -1.7727    1.2230   -0.5669 H       1  UNL1        0.0268
     11 H          -1.2207    1.2230    1.1242 H       1  UNL1        0.0268
     12 H          -1.2211   -1.2232    1.1241 H       1  UNL1        0.0268
     13 H          -1.7727   -1.2227   -0.5673 H       1  UNL1        0.0268
@<TRIPOS>BOND
     1     1     2    1
     2     1     3    1
     3     1     4    1
     4     1     6    1
     5     2     3    1
     6     2     5    1
     7     2     7    1
     8     3     8    1
     9     3     9    1
    10     4     5    1
    11     4    10    1
    12     4    11    1
    13     5    12    1
    14     5    13    1
