@<TRIPOS>MOLECULE
638057
 19 20 0 0 0
SMALL
GASTEIGER

@<TRIPOS>ATOM
      1 C          -0.6238   -1.0508   -0.0215 C.3     1  UNL1       -0.0405
      2 C          -0.6241    1.0506   -0.0215 C.3     1  UNL1       -0.0405
      3 C          -0.9909   -0.0001   -1.1172 C.3     1  UNL1       -0.0473
      4 C          -1.1778   -0.0002    0.9836 C.3     1  UNL1       -0.0473
      5 C           0.8798   -1.2762    0.1725 C.3     1  UNL1       -0.0502
      6 C           0.8794    1.2764    0.1726 C.3     1  UNL1       -0.0502
      7 C           1.6573    0.0002   -0.1684 C.3     1  UNL1       -0.0526
      8 H          -1.1899   -1.9866   -0.0561 H       1  UNL1        0.0301
      9 H          -1.1904    1.9863   -0.0560 H       1  UNL1        0.0301
     10 H          -0.3906    0.0000   -2.0306 H       1  UNL1        0.0271
     11 H          -2.0500   -0.0002   -1.4037 H       1  UNL1        0.0271
     12 H          -2.2707   -0.0003    1.0795 H       1  UNL1        0.0271
     13 H          -0.7448   -0.0001    1.9880 H       1  UNL1        0.0271
     14 H           1.2269   -2.0936   -0.4696 H       1  UNL1        0.0268
     15 H           1.0795   -1.5759    1.2080 H       1  UNL1        0.0268
     16 H           1.0791    1.5760    1.2080 H       1  UNL1        0.0268
     17 H           1.2264    2.0940   -0.4694 H       1  UNL1        0.0268
     18 H           2.6401    0.0003    0.3156 H       1  UNL1        0.0265
     19 H           1.8553    0.0002   -1.2486 H       1  UNL1        0.0265
@<TRIPOS>BOND
     1     1     3    1
     2     1     4    1
     3     1     5    1
     4     1     8    1
     5     2     3    1
     6     2     4    1
     7     2     6    1
     8     2     9    1
     9     3    10    1
    10     3    11    1
    11     4    12    1
    12     4    13    1
    13     5     7    1
    14     5    14    1
    15     5    15    1
    16     6     7    1
    17     6    16    1
    18     6    17    1
    19     7    18    1
    20     7    19    1
