@<TRIPOS>MOLECULE
9235
 22 23 0 0 0
SMALL
GASTEIGER

@<TRIPOS>ATOM
      1 C           1.3007    0.0001   -0.0003 C.3     1  UNL1       -0.0410
      2 C          -1.3007    0.0000    0.0003 C.3     1  UNL1       -0.0410
      3 C           0.7680   -0.5998    1.3120 C.3     1  UNL1       -0.0500
      4 C           0.7676    1.4364   -0.1369 C.3     1  UNL1       -0.0500
      5 C          -0.7677    1.4363   -0.1364 C.3     1  UNL1       -0.0500
      6 C           0.7674   -0.8366   -1.1757 C.3     1  UNL1       -0.0500
      7 C          -0.7672   -0.5999    1.3124 C.3     1  UNL1       -0.0500
      8 C          -0.7679   -0.8365   -1.1754 C.3     1  UNL1       -0.0500
      9 H           2.3959    0.0001   -0.0006 H       1  UNL1        0.0301
     10 H          -2.3959    0.0000    0.0007 H       1  UNL1        0.0301
     11 H           1.1388   -0.0249    2.1691 H       1  UNL1        0.0268
     12 H           1.1387   -1.6241    1.4380 H       1  UNL1        0.0268
     13 H          -1.1381    2.0576    0.6878 H       1  UNL1        0.0268
     14 H          -1.1387    1.8912   -1.0628 H       1  UNL1        0.0268
     15 H           1.1384    2.0579    0.6870 H       1  UNL1        0.0268
     16 H           1.1379    1.8912   -1.0635 H       1  UNL1        0.0268
     17 H          -1.1378   -1.6243    1.4386 H       1  UNL1        0.0268
     18 H          -1.1377   -0.0251    2.1697 H       1  UNL1        0.0268
     19 H          -1.1387   -0.4334   -2.1254 H       1  UNL1        0.0268
     20 H          -1.1386   -1.8662   -1.1061 H       1  UNL1        0.0268
     21 H           1.1377   -0.4338   -2.1261 H       1  UNL1        0.0268
     22 H           1.1379   -1.8664   -1.1064 H       1  UNL1        0.0268
@<TRIPOS>BOND
     1     1     3    1
     2     1     4    1
     3     1     6    1
     4     1     9    1
     5     2     5    1
     6     2     7    1
     7     2     8    1
     8     2    10    1
     9     3     7    1
    10     3    11    1
    11     3    12    1
    12     4     5    1
    13     4    15    1
    14     4    16    1
    15     5    13    1
    16     5    14    1
    17     6     8    1
    18     6    21    1
    19     6    22    1
    20     7    17    1
    21     7    18    1
    22     8    19    1
    23     8    20    1
