@<TRIPOS>MOLECULE
136153
 13 14 0 0 0
SMALL
GASTEIGER

@<TRIPOS>ATOM
      1 C           0.0002   -0.0001   -0.9768 C.3     1  UNL1       -0.0403
      2 C          -0.0003    0.0001    0.9768 C.3     1  UNL1       -0.0403
      3 C           1.2257    0.0622    0.0002 C.3     1  UNL1       -0.0473
      4 C          -0.5590   -1.0925    0.0000 C.3     1  UNL1       -0.0473
      5 C          -0.6667    1.0304   -0.0002 C.3     1  UNL1       -0.0473
      6 H           0.0004   -0.0001   -2.0553 H       1  UNL1        0.0301
      7 H          -0.0004    0.0001    2.0553 H       1  UNL1        0.0301
      8 H           1.9045   -0.7970    0.0005 H       1  UNL1        0.0271
      9 H           1.8141    0.9855    0.0003 H       1  UNL1        0.0271
     10 H          -1.6424   -1.2509   -0.0002 H       1  UNL1        0.0271
     11 H          -0.0535   -2.0638    0.0002 H       1  UNL1        0.0271
     12 H          -0.2621    2.0478   -0.0002 H       1  UNL1        0.0271
     13 H          -1.7605    1.0783   -0.0005 H       1  UNL1        0.0271
@<TRIPOS>BOND
     1     1     3    1
     2     1     4    1
     3     1     5    1
     4     1     6    1
     5     2     3    1
     6     2     4    1
     7     2     5    1
     8     2     7    1
     9     3     8    1
    10     3     9    1
    11     4    10    1
    12     4    11    1
    13     5    12    1
    14     5    13    1
