@<TRIPOS>MOLECULE
67510
 16 17 0 0 0
SMALL
GASTEIGER

@<TRIPOS>ATOM
      1 C          -0.6921   -0.7459   -0.3938 C.3     1  UNL1       -0.0379
      2 C          -0.6924    0.7457   -0.3938 C.3     1  UNL1       -0.0379
      3 C          -1.4832   -0.0001    0.6488 C.3     1  UNL1       -0.0469
      4 C           0.7124   -1.2159   -0.1482 C.3     1  UNL1       -0.0499
      5 C           0.7120    1.2162   -0.1482 C.3     1  UNL1       -0.0499
      6 C           1.4432    0.0001    0.4353 C.3     1  UNL1       -0.0525
      7 H          -1.2184   -1.2834   -1.1681 H       1  UNL1        0.0304
      8 H          -1.2189    1.2829   -1.1681 H       1  UNL1        0.0304
      9 H          -2.5626   -0.0004    0.5531 H       1  UNL1        0.0271
     10 H          -1.1313    0.0000    1.6725 H       1  UNL1        0.0271
     11 H           1.1717   -1.5099   -1.0986 H       1  UNL1        0.0268
     12 H           0.7451   -2.0716    0.5325 H       1  UNL1        0.0268
     13 H           0.7445    2.0718    0.5326 H       1  UNL1        0.0268
     14 H           1.1712    1.5103   -1.0986 H       1  UNL1        0.0268
     15 H           1.3409    0.0001    1.5274 H       1  UNL1        0.0265
     16 H           2.5122    0.0003    0.2034 H       1  UNL1        0.0265
@<TRIPOS>BOND
     1     1     2    1
     2     1     3    1
     3     1     4    1
     4     1     7    1
     5     2     3    1
     6     2     5    1
     7     2     8    1
     8     3     9    1
     9     3    10    1
    10     4     6    1
    11     4    11    1
    12     4    12    1
    13     5     6    1
    14     5    13    1
    15     5    14    1
    16     6    15    1
    17     6    16    1
