@<TRIPOS>MOLECULE
92911
 27 28 0 0 0
SMALL
GASTEIGER

@<TRIPOS>ATOM
      1 N           1.2241    1.4216   -0.1987 N.3     1  UNL1       -0.3130
      2 C           0.0111   -0.7346   -0.2704 C.3     1  UNL1       -0.0256
      3 C           0.0252    0.7113    0.2637 C.3     1  UNL1        0.0104
      4 C          -1.2545   -1.4694    0.1878 C.3     1  UNL1       -0.0488
      5 C           1.2774   -1.4773    0.1703 C.3     1  UNL1       -0.0476
      6 C          -1.2328    1.4635   -0.1904 C.3     1  UNL1       -0.0373
      7 C          -2.5155   -0.7174   -0.2345 C.3     1  UNL1       -0.0527
      8 C          -2.5015    0.7313    0.2458 C.3     1  UNL1       -0.0516
      9 C           2.5203   -0.6870   -0.2314 C.3     1  UNL1       -0.0401
     10 C           2.4463    0.7580    0.2579 C.3     1  UNL1       -0.0038
     11 H           0.0032   -0.7052   -1.3702 H       1  UNL1        0.0316
     12 H           0.0285    0.6943    1.3630 H       1  UNL1        0.0463
     13 H          -1.2484   -1.5824    1.2794 H       1  UNL1        0.0268
     14 H          -1.2760   -2.4799   -0.2370 H       1  UNL1        0.0268
     15 H           1.3114   -2.4748   -0.2827 H       1  UNL1        0.0269
     16 H           1.2722   -1.6182    1.2586 H       1  UNL1        0.0269
     17 H          -1.2363    1.5714   -1.2831 H       1  UNL1        0.0280
     18 H          -1.2412    2.4769    0.2295 H       1  UNL1        0.0280
     19 H          -3.3996   -1.2288    0.1628 H       1  UNL1        0.0265
     20 H          -2.6008   -0.7366   -1.3281 H       1  UNL1        0.0265
     21 H          -3.3814    1.2564   -0.1428 H       1  UNL1        0.0266
     22 H          -2.5751    0.7522    1.3402 H       1  UNL1        0.0266
     23 H           3.4143   -1.1714    0.1773 H       1  UNL1        0.0278
     24 H           2.6216   -0.6994   -1.3241 H       1  UNL1        0.0278
     25 H           1.2102    2.3791    0.1519 H       1  UNL1        0.1222
     26 H           2.5047    0.7900    1.3527 H       1  UNL1        0.0424
     27 H           3.3119    1.3100   -0.1241 H       1  UNL1        0.0424
@<TRIPOS>BOND
     1     1     3    1
     2     1    10    1
     3     1    25    1
     4     2     3    1
     5     2     4    1
     6     2     5    1
     7     2    11    1
     8     3     6    1
     9     3    12    1
    10     4     7    1
    11     4    13    1
    12     4    14    1
    13     5     9    1
    14     5    15    1
    15     5    16    1
    16     6     8    1
    17     6    17    1
    18     6    18    1
    19     7     8    1
    20     7    19    1
    21     7    20    1
    22     8    21    1
    23     8    22    1
    24     9    10    1
    25     9    23    1
    26     9    24    1
    27    10    26    1
    28    10    27    1
