@<TRIPOS>MOLECULE
286595
 24 25 0 0 0
SMALL
GASTEIGER

@<TRIPOS>ATOM
      1 N          -0.0088   -0.0001   -1.4759 N.3     1  UNL1       -0.3105
      2 C          -0.0011   -1.2028   -0.6347 C.3     1  UNL1        0.0079
      3 C          -0.0002    1.2028   -0.6348 C.3     1  UNL1        0.0079
      4 C          -1.2934   -1.2662    0.1940 C.3     1  UNL1       -0.0375
      5 C           1.2940   -1.2688    0.1906 C.3     1  UNL1       -0.0375
      6 C          -1.2921    1.2672    0.1943 C.3     1  UNL1       -0.0375
      7 C           1.2952    1.2678    0.1901 C.3     1  UNL1       -0.0375
      8 C          -1.5918    0.0006    0.9916 C.3     1  UNL1       -0.0502
      9 C           1.5981   -0.0005    0.9848 C.3     1  UNL1       -0.0502
     10 H          -0.0060   -2.0750   -1.3005 H       1  UNL1        0.0460
     11 H          -0.0045    2.0749   -1.3008 H       1  UNL1        0.0460
     12 H          -1.2698   -2.1293    0.8698 H       1  UNL1        0.0280
     13 H          -2.1333   -1.4385   -0.4930 H       1  UNL1        0.0280
     14 H           2.1316   -1.4449   -0.4983 H       1  UNL1        0.0280
     15 H           1.2697   -2.1303    0.8683 H       1  UNL1        0.0280
     16 H          -2.1320    1.4406   -0.4924 H       1  UNL1        0.0280
     17 H          -1.2675    2.1301    0.8704 H       1  UNL1        0.0280
     18 H           1.2719    2.1296    0.8675 H       1  UNL1        0.0280
     19 H           2.1328    1.4429   -0.4990 H       1  UNL1        0.0280
     20 H           0.8229   -0.0004   -2.0668 H       1  UNL1        0.1225
     21 H          -2.6453    0.0010    1.2972 H       1  UNL1        0.0266
     22 H          -1.0241    0.0002    1.9257 H       1  UNL1        0.0266
     23 H           1.0357    0.0000    1.9222 H       1  UNL1        0.0266
     24 H           2.6532   -0.0009    1.2847 H       1  UNL1        0.0266
@<TRIPOS>BOND
     1     1     2    1
     2     1     3    1
     3     1    20    1
     4     2     4    1
     5     2     5    1
     6     2    10    1
     7     3     6    1
     8     3     7    1
     9     3    11    1
    10     4     8    1
    11     4    12    1
    12     4    13    1
    13     5     9    1
    14     5    14    1
    15     5    15    1
    16     6     8    1
    17     6    16    1
    18     6    17    1
    19     7     9    1
    20     7    18    1
    21     7    19    1
    22     8    21    1
    23     8    22    1
    24     9    23    1
    25     9    24    1
