@<TRIPOS>MOLECULE
638051
 17 18 0 0 0
SMALL
GASTEIGER

@<TRIPOS>ATOM
      1 C          -0.0284    1.1168    0.3118 C.3     1  UNL1       -0.0223
      2 C          -0.0289   -1.1167    0.3120 C.3     1  UNL1       -0.0223
      3 C          -0.0374    0.0001    1.3601 C.3     1  UNL1       -0.0405
      4 C           1.2561    0.7768   -0.4724 C.3     1  UNL1       -0.0462
      5 C           1.2557   -0.7772   -0.4726 C.3     1  UNL1       -0.0462
      6 C          -1.2084    0.6708   -0.5195 C.2     1  UNL1       -0.0846
      7 C          -1.2087   -0.6705   -0.5194 C.2     1  UNL1       -0.0846
      8 H          -0.0974    2.1309    0.7058 H       1  UNL1        0.0343
      9 H          -0.0981   -2.1309    0.7061 H       1  UNL1        0.0343
     10 H           0.8516    0.0000    2.0009 H       1  UNL1        0.0277
     11 H          -0.9351    0.0004    1.9915 H       1  UNL1        0.0277
     12 H           2.1448    1.1513    0.0478 H       1  UNL1        0.0271
     13 H           1.2522    1.1828   -1.4896 H       1  UNL1        0.0271
     14 H           1.2513   -1.1831   -1.4899 H       1  UNL1        0.0271
     15 H           2.1443   -1.1523    0.0474 H       1  UNL1        0.0271
     16 H          -1.8879    1.3121   -1.0575 H       1  UNL1        0.0572
     17 H          -1.8885   -1.3116   -1.0572 H       1  UNL1        0.0572
@<TRIPOS>BOND
     1     1     3    1
     2     1     4    1
     3     1     6    1
     4     1     8    1
     5     2     3    1
     6     2     5    1
     7     2     7    1
     8     2     9    1
     9     3    10    1
    10     3    11    1
    11     4     5    1
    12     4    12    1
    13     4    13    1
    14     5    14    1
    15     5    15    1
    16     6     7    2
    17     6    16    1
    18     7    17    1
