@<TRIPOS>MOLECULE
9233
 19 20 0 0 0
SMALL
GASTEIGER

@<TRIPOS>ATOM
      1 C          -0.0003   -1.1128   -0.3224 C.3     1  UNL1       -0.0408
      2 C           0.0002    1.1127   -0.3224 C.3     1  UNL1       -0.0408
      3 C          -0.0002   -0.0001   -1.3699 C.3     1  UNL1       -0.0474
      4 C           1.2514    0.7678    0.5032 C.3     1  UNL1       -0.0500
      5 C           1.2504   -0.7684    0.5040 C.3     1  UNL1       -0.0500
      6 C          -1.2504    0.7685    0.5040 C.3     1  UNL1       -0.0500
      7 C          -1.2511   -0.7677    0.5035 C.3     1  UNL1       -0.0500
      8 H          -0.0005   -2.1318   -0.7140 H       1  UNL1        0.0301
      9 H           0.0004    2.1316   -0.7141 H       1  UNL1        0.0301
     10 H           0.8950   -0.0003   -2.0007 H       1  UNL1        0.0271
     11 H          -0.8955    0.0001   -2.0005 H       1  UNL1        0.0271
     12 H           1.2142    1.1800    1.5165 H       1  UNL1        0.0268
     13 H           2.1571    1.1433    0.0139 H       1  UNL1        0.0268
     14 H          -2.1563    1.1453    0.0158 H       1  UNL1        0.0268
     15 H          -1.2119    1.1799    1.5176 H       1  UNL1        0.0268
     16 H           2.1563   -1.1455    0.0160 H       1  UNL1        0.0268
     17 H           1.2117   -1.1796    1.5177 H       1  UNL1        0.0268
     18 H          -1.2135   -1.1798    1.5169 H       1  UNL1        0.0268
     19 H          -2.1570   -1.1435    0.0147 H       1  UNL1        0.0268
@<TRIPOS>BOND
     1     1     3    1
     2     1     5    1
     3     1     7    1
     4     1     8    1
     5     2     3    1
     6     2     4    1
     7     2     6    1
     8     2     9    1
     9     3    10    1
    10     3    11    1
    11     4     5    1
    12     4    12    1
    13     4    13    1
    14     5    16    1
    15     5    17    1
    16     6     7    1
    17     6    14    1
    18     6    15    1
    19     7    18    1
    20     7    19    1
