@<TRIPOS>MOLECULE
110688
 21 22 0 0 0
SMALL
GASTEIGER

@<TRIPOS>ATOM
      1 N          -2.0942   -0.0001   -0.2049 N.3     1  UNL1       -0.3154
      2 C          -0.0207    0.7684    0.6308 C.3     1  UNL1       -0.0245
      3 C          -0.0207   -0.7684    0.6308 C.3     1  UNL1       -0.0245
      4 C           1.3456    1.1944    0.0981 C.3     1  UNL1       -0.0488
      5 C           1.3458   -1.1942    0.0984 C.3     1  UNL1       -0.0488
      6 C           1.8263    0.0001   -0.7158 C.3     1  UNL1       -0.0525
      7 C          -1.1912    1.1543   -0.2685 C.3     1  UNL1       -0.0010
      8 C          -1.1909   -1.1544   -0.2688 C.3     1  UNL1       -0.0010
      9 H          -0.1832    1.1567    1.6434 H       1  UNL1        0.0316
     10 H          -0.1833   -1.1567    1.6434 H       1  UNL1        0.0316
     11 H           2.0305    1.3587    0.9391 H       1  UNL1        0.0268
     12 H           1.3130    2.1159   -0.4908 H       1  UNL1        0.0268
     13 H           1.3136   -2.1159   -0.4902 H       1  UNL1        0.0268
     14 H           2.0306   -1.3581    0.9395 H       1  UNL1        0.0268
     15 H           2.9119    0.0001   -0.8490 H       1  UNL1        0.0265
     16 H           1.3596   -0.0002   -1.7076 H       1  UNL1        0.0265
     17 H          -1.6897    2.0615    0.0861 H       1  UNL1        0.0427
     18 H          -0.8741    1.3256   -1.3043 H       1  UNL1        0.0427
     19 H          -0.8736   -1.3252   -1.3046 H       1  UNL1        0.0427
     20 H          -1.6892   -2.0619    0.0853 H       1  UNL1        0.0427
     21 H          -2.7336   -0.0001   -0.9977 H       1  UNL1        0.1220
@<TRIPOS>BOND
     1     1     7    1
     2     1     8    1
     3     1    21    1
     4     2     3    1
     5     2     4    1
     6     2     7    1
     7     2     9    1
     8     3     5    1
     9     3     8    1
    10     3    10    1
    11     4     6    1
    12     4    11    1
    13     4    12    1
    14     5     6    1
    15     5    13    1
    16     5    14    1
    17     6    15    1
    18     6    16    1
    19     7    17    1
    20     7    18    1
    21     8    19    1
    22     8    20    1
