@<TRIPOS>MOLECULE
107275
 24 25 0 0 0
SMALL
GASTEIGER

@<TRIPOS>ATOM
      1 N           1.0271    1.1220   -0.6054 N.3     1  UNL1       -0.3130
      2 C           0.3869   -0.7156    0.6738 C.3     1  UNL1       -0.0245
      3 C           0.2597    0.8061    0.6032 C.3     1  UNL1        0.0105
      4 C          -0.5409   -1.4559   -0.3045 C.3     1  UNL1       -0.0488
      5 C           1.8548   -0.9301    0.3049 C.3     1  UNL1       -0.0362
      6 C          -1.1820    1.3058    0.5457 C.3     1  UNL1       -0.0373
      7 C          -1.9784   -0.9580   -0.2132 C.3     1  UNL1       -0.0527
      8 C           2.2247    0.2796   -0.5527 C.3     1  UNL1       -0.0035
      9 C          -2.0520    0.5462   -0.4518 C.3     1  UNL1       -0.0516
     10 H           0.1863   -1.0733    1.6909 H       1  UNL1        0.0316
     11 H           0.7590    1.2650    1.4675 H       1  UNL1        0.0463
     12 H          -0.5100   -2.5314   -0.0924 H       1  UNL1        0.0268
     13 H          -0.1901   -1.3365   -1.3378 H       1  UNL1        0.0268
     14 H           2.0270   -1.8764   -0.2181 H       1  UNL1        0.0281
     15 H           2.4683   -0.9334    1.2141 H       1  UNL1        0.0281
     16 H          -1.2039    2.3769    0.3110 H       1  UNL1        0.0280
     17 H          -1.6253    1.1992    1.5444 H       1  UNL1        0.0280
     18 H          -2.3908   -1.1977    0.7745 H       1  UNL1        0.0265
     19 H          -2.5957   -1.4787   -0.9538 H       1  UNL1        0.0265
     20 H           3.0615    0.8232   -0.1000 H       1  UNL1        0.0424
     21 H           2.5200   -0.0203   -1.5626 H       1  UNL1        0.0424
     22 H          -1.7332    0.7750   -1.4758 H       1  UNL1        0.0266
     23 H          -3.0912    0.8822   -0.3605 H       1  UNL1        0.0266
     24 H           1.2760    2.1090   -0.6345 H       1  UNL1        0.1222
@<TRIPOS>BOND
     1     1     3    1
     2     1     8    1
     3     1    24    1
     4     2     3    1
     5     2     4    1
     6     2     5    1
     7     2    10    1
     8     3     6    1
     9     3    11    1
    10     4     7    1
    11     4    12    1
    12     4    13    1
    13     5     8    1
    14     5    14    1
    15     5    15    1
    16     6     9    1
    17     6    16    1
    18     6    17    1
    19     7     9    1
    20     7    18    1
    21     7    19    1
    22     8    20    1
    23     8    21    1
    24     9    22    1
    25     9    23    1
