@<TRIPOS>MOLECULE
7527
 21 22 0 0 0
SMALL
GASTEIGER

@<TRIPOS>ATOM
      1 N           1.2842    0.0003    0.0001 N.3     1  UNL1       -0.3023
      2 C          -1.3159   -0.0002    0.0000 C.3     1  UNL1       -0.0376
      3 C          -0.7627   -1.4015   -0.2992 C.3     1  UNL1       -0.0373
      4 C          -0.7632    0.9596   -1.0640 C.3     1  UNL1       -0.0373
      5 C          -0.7633    0.4414    1.3631 C.3     1  UNL1       -0.0373
      6 C           0.7739   -1.3579   -0.2884 C.3     1  UNL1       -0.0009
      7 C           0.7735    0.9290   -1.0318 C.3     1  UNL1       -0.0009
      8 C           0.7736    0.4293    1.3203 C.3     1  UNL1       -0.0009
      9 H          -2.4105   -0.0005    0.0000 H       1  UNL1        0.0302
     10 H          -1.1204   -1.7467   -1.2766 H       1  UNL1        0.0280
     11 H          -1.1219   -2.1162    0.4508 H       1  UNL1        0.0280
     12 H          -1.1211    1.9785   -0.8744 H       1  UNL1        0.0280
     13 H          -1.1224    0.6673   -2.0579 H       1  UNL1        0.0280
     14 H          -1.1209   -0.2324    2.1507 H       1  UNL1        0.0280
     15 H          -1.1226    1.4482    1.6070 H       1  UNL1        0.0280
     16 H           1.1631   -2.0652    0.4547 H       1  UNL1        0.0427
     17 H           1.1647   -1.7029   -1.2540 H       1  UNL1        0.0427
     18 H           1.1626    0.6392   -2.0159 H       1  UNL1        0.0427
     19 H           1.1639    1.9377   -0.8479 H       1  UNL1        0.0427
     20 H           1.1624    1.4265    1.5615 H       1  UNL1        0.0427
     21 H           1.1643   -0.2343    2.1019 H       1  UNL1        0.0427
@<TRIPOS>BOND
     1     1     6    1
     2     1     7    1
     3     1     8    1
     4     2     3    1
     5     2     4    1
     6     2     5    1
     7     2     9    1
     8     3     6    1
     9     3    10    1
    10     3    11    1
    11     4     7    1
    12     4    12    1
    13     4    13    1
    14     5     8    1
    15     5    14    1
    16     5    15    1
    17     6    16    1
    18     6    17    1
    19     7    18    1
    20     7    19    1
    21     8    20    1
    22     8    21    1
