@<TRIPOS>MOLECULE
44345146
 31 32 0 0 0
SMALL
GASTEIGER

@<TRIPOS>ATOM
      1 O           1.0066    2.3898   -0.0562 O.3     1  UNL1       -0.3865
      2 O          -3.4395    0.6816    0.4727 O.3     1  UNL1       -0.3888
      3 O          -1.8286    2.8224   -0.3889 O.3     1  UNL1       -0.3866
      4 O          -2.0671   -3.2768   -0.0355 O.3     1  UNL1       -0.3946
      5 O           0.6409   -0.0768    2.1419 O.2     1  UNL1       -0.2729
      6 O           4.1664   -0.6694   -0.7176 O.2     1  UNL1       -0.2524
      7 N           1.9113   -0.1873   -1.0905 N.am    1  UNL1       -0.2828
      8 N           2.6178   -0.4457    1.0000 N.am    1  UNL1       -0.2383
      9 C           0.6929    0.0030   -0.3149 C.3     1  UNL1        0.1411
     10 C          -0.3022   -1.1165   -0.6399 C.3     1  UNL1       -0.0131
     11 C          -1.6739   -0.9209    0.0227 C.3     1  UNL1        0.0132
     12 C           0.1075    1.3994   -0.5609 C.3     1  UNL1        0.1131
     13 C          -2.2456    0.4721   -0.2851 C.3     1  UNL1        0.0885
     14 C          -1.2685    1.5918    0.0829 C.3     1  UNL1        0.1096
     15 C           1.2760   -0.1693    1.1001 C.2     1  UNL1        0.2466
     16 C          -2.6264   -2.0369   -0.4209 C.3     1  UNL1        0.0495
     17 C           3.0322   -0.4606   -0.3098 C.2     1  UNL1        0.3068
     18 H           0.1236   -2.0830   -0.3388 H       1  UNL1        0.0296
     19 H          -0.4352   -1.1704   -1.7297 H       1  UNL1        0.0296
     20 H          -1.5504   -1.0237    1.1090 H       1  UNL1        0.0350
     21 H           0.0337    1.5777   -1.6420 H       1  UNL1        0.0646
     22 H          -2.5272    0.5451   -1.3425 H       1  UNL1        0.0623
     23 H          -1.1813    1.7015    1.1697 H       1  UNL1        0.0646
     24 H           1.9415   -0.1418   -2.1044 H       1  UNL1        0.1514
     25 H          -2.7677   -2.0323   -1.5069 H       1  UNL1        0.0561
     26 H          -3.6037   -1.9347    0.0612 H       1  UNL1        0.0561
     27 H           3.2277   -0.6072    1.7931 H       1  UNL1        0.1591
     28 H           0.6036    3.2592   -0.2220 H       1  UNL1        0.2100
     29 H          -3.2174    0.5875    1.4148 H       1  UNL1        0.2099
     30 H          -1.9076    2.7666   -1.3566 H       1  UNL1        0.2100
     31 H          -2.6822   -3.9720   -0.3250 H       1  UNL1        0.2094
@<TRIPOS>BOND
     1     1    12    1
     2     1    28    1
     3     2    13    1
     4     2    29    1
     5     3    14    1
     6     3    30    1
     7     4    16    1
     8     4    31    1
     9     5    15    2
    10     6    17    2
    11     7     9    1
    12     7    17   am
    13     7    24    1
    14     8    15   am
    15     8    17   am
    16     8    27    1
    17     9    10    1
    18     9    12    1
    19     9    15    1
    20    10    11    1
    21    10    18    1
    22    10    19    1
    23    11    13    1
    24    11    16    1
    25    11    20    1
    26    12    14    1
    27    12    21    1
    28    13    14    1
    29    13    22    1
    30    14    23    1
    31    16    25    1
    32    16    26    1
