@<TRIPOS>MOLECULE
11_cis_retinal
 49 49 0 0 0
SMALL
GASTEIGER

@<TRIPOS>ATOM
      1 O           3.8977   -3.3243   -0.2254 O.2     1  UNL1       -0.2963
      2 C          -3.9861    0.6037    0.4688 C.3     1  UNL1       -0.0099
      3 C          -5.1864   -0.3767    0.3655 C.3     1  UNL1       -0.0436
      4 C          -4.7843   -1.8107    0.6604 C.3     1  UNL1       -0.0486
      5 C          -2.7253    0.0352   -0.2240 C.2     1  UNL1       -0.0427
      6 C          -3.7314   -2.2721   -0.3360 C.3     1  UNL1       -0.0314
      7 C          -2.6335   -1.2633   -0.6071 C.2     1  UNL1       -0.0689
      8 C          -3.6805    0.8689    1.9610 C.3     1  UNL1       -0.0558
      9 C          -4.4601    1.9277   -0.1791 C.3     1  UNL1       -0.0558
     10 C          -1.6341    0.9766   -0.4148 C.2     1  UNL1       -0.0579
     11 C          -1.4658   -1.8884   -1.3350 C.3     1  UNL1       -0.0432
     12 C          -0.3446    0.6565   -0.2190 C.2     1  UNL1       -0.0586
     13 C           0.8039    1.5470   -0.3892 C.2     1  UNL1       -0.0504
     14 C           0.5242    2.9670   -0.8258 C.3     1  UNL1       -0.0397
     15 C           2.0869    1.1792   -0.1799 C.2     1  UNL1       -0.0588
     16 C           3.2912    1.9789   -0.3190 C.2     1  UNL1       -0.0613
     17 C           4.5195    1.4863   -0.0775 C.2     1  UNL1       -0.0587
     18 C           4.8391    0.1237    0.3471 C.2     1  UNL1       -0.0474
     19 C           5.9261   -0.0471    1.3835 C.3     1  UNL1       -0.0396
     20 C           4.2316   -0.9836   -0.1230 C.2     1  UNL1       -0.0195
     21 C           4.5121   -2.3848    0.2684 C.2     1  UNL1        0.1433
     22 H          -5.6172   -0.3368   -0.6449 H       1  UNL1        0.0274
     23 H          -5.9881   -0.0754    1.0517 H       1  UNL1        0.0274
     24 H          -5.6604   -2.4664    0.5980 H       1  UNL1        0.0269
     25 H          -4.4002   -1.9002    1.6830 H       1  UNL1        0.0269
     26 H          -4.2189   -2.5123   -1.2896 H       1  UNL1        0.0310
     27 H          -3.2923   -3.2042    0.0408 H       1  UNL1        0.0310
     28 H          -4.5770    1.2048    2.4946 H       1  UNL1        0.0238
     29 H          -3.3068   -0.0281    2.4668 H       1  UNL1        0.0238
     30 H          -2.9208    1.6500    2.0820 H       1  UNL1        0.0238
     31 H          -5.4396    2.2260    0.2141 H       1  UNL1        0.0238
     32 H          -3.7787    2.7600    0.0279 H       1  UNL1        0.0238
     33 H          -4.5566    1.8276   -1.2665 H       1  UNL1        0.0238
     34 H          -1.9023    1.9648   -0.7697 H       1  UNL1        0.0621
     35 H          -0.8006   -2.3995   -0.6320 H       1  UNL1        0.0275
     36 H          -0.8963   -1.1789   -1.9405 H       1  UNL1        0.0275
     37 H          -1.8299   -2.6384   -2.0479 H       1  UNL1        0.0275
     38 H          -0.0812   -0.3248    0.1689 H       1  UNL1        0.0620
     39 H           1.3874    3.6240   -0.9233 H       1  UNL1        0.0278
     40 H          -0.1418    3.4565   -0.1049 H       1  UNL1        0.0278
     41 H           0.0311    2.9674   -1.8051 H       1  UNL1        0.0278
     42 H           2.1819    0.1803    0.2263 H       1  UNL1        0.0620
     43 H           3.2344    3.0150   -0.6268 H       1  UNL1        0.0618
     44 H           5.3720    2.1538   -0.1858 H       1  UNL1        0.0620
     45 H           6.3044    0.9228    1.7264 H       1  UNL1        0.0278
     46 H           6.7785   -0.5966    0.9699 H       1  UNL1        0.0278
     47 H           5.5491   -0.5676    2.2706 H       1  UNL1        0.0278
     48 H           3.5084   -0.9203   -0.9324 H       1  UNL1        0.0652
     49 H           5.2940   -2.5438    1.0259 H       1  UNL1        0.1075
@<TRIPOS>BOND
     1     1    21    2
     2     2     3    1
     3     2     5    1
     4     2     8    1
     5     2     9    1
     6     3     4    1
     7     3    22    1
     8     3    23    1
     9     4     6    1
    10     4    24    1
    11     4    25    1
    12     5     7    2
    13     5    10    1
    14     6     7    1
    15     6    26    1
    16     6    27    1
    17     7    11    1
    18     8    28    1
    19     8    29    1
    20     8    30    1
    21     9    31    1
    22     9    32    1
    23     9    33    1
    24    10    12    2
    25    10    34    1
    26    11    35    1
    27    11    36    1
    28    11    37    1
    29    12    13    1
    30    12    38    1
    31    13    14    1
    32    13    15    2
    33    14    39    1
    34    14    40    1
    35    14    41    1
    36    15    16    1
    37    15    42    1
    38    16    17    2
    39    16    43    1
    40    17    18    1
    41    17    44    1
    42    18    19    1
    43    18    20    2
    44    19    45    1
    45    19    46    1
    46    19    47    1
    47    20    21    1
    48    20    48    1
    49    21    49    1
