@<TRIPOS>MOLECULE
alpha_tocopherol_e
 81 82 0 0 0
SMALL
GASTEIGER

@<TRIPOS>ATOM
      1 O           0.7439   -1.3977   -0.1232 O.3     1  UNL1       -0.4854
      2 O           5.3183    1.4276   -1.3890 O.3     1  UNL1       -0.5062
      3 C           0.7693   -2.3982    0.9123 C.3     1  UNL1        0.1082
      4 C          -0.6874   -2.5672    1.3684 C.3     1  UNL1       -0.0132
      5 C           1.6165   -1.9523    2.1151 C.3     1  UNL1       -0.0091
      6 C          -1.6525   -2.5615    0.1814 C.3     1  UNL1       -0.0492
      7 C          -4.1405   -2.6928   -0.4929 C.3     1  UNL1       -0.0439
      8 C          -3.0989   -2.7639    0.6462 C.3     1  UNL1       -0.0503
      9 C           3.0429   -1.6226    1.6984 C.3     1  UNL1       -0.0202
     10 C          -4.1332   -1.3155   -1.1902 C.3     1  UNL1       -0.0505
     11 C           1.2487   -3.7271    0.3089 C.3     1  UNL1       -0.0249
     12 C           3.0372   -0.7796    0.4579 C.ar    1  UNL1        0.0011
     13 C          -4.4179   -0.1428   -0.2451 C.3     1  UNL1       -0.0526
     14 C           1.9105   -0.7238   -0.3710 C.ar    1  UNL1        0.1281
     15 C          -4.4293    1.2220   -0.9482 C.3     1  UNL1       -0.0505
     16 C          -4.6441    2.4603   -0.0469 C.3     1  UNL1       -0.0439
     17 C          -3.8732   -3.8345   -1.4808 C.3     1  UNL1       -0.0624
     18 C          -3.6255    2.5062    1.1114 C.3     1  UNL1       -0.0505
     19 C           4.1850   -0.0589    0.1006 C.ar    1  UNL1       -0.0021
     20 C           1.9230    0.0704   -1.5212 C.ar    1  UNL1       -0.0021
     21 C          -2.1483    2.5701    0.7012 C.3     1  UNL1       -0.0526
     22 C           3.0658    0.7930   -1.8615 C.ar    1  UNL1       -0.0024
     23 C          -4.5670    3.7209   -0.9179 C.3     1  UNL1       -0.0624
     24 C           4.1977    0.7256   -1.0529 C.ar    1  UNL1        0.1234
     25 C          -1.1393    2.5588    1.8561 C.3     1  UNL1       -0.0507
     26 C           0.3455    2.5408    1.4458 C.3     1  UNL1       -0.0467
     27 C           5.4159   -0.1114    0.9522 C.3     1  UNL1       -0.0359
     28 C           0.7053    0.1538   -2.3883 C.3     1  UNL1       -0.0359
     29 C           3.0817    1.6448   -3.0909 C.3     1  UNL1       -0.0359
     30 C           1.2834    2.4710    2.6512 C.3     1  UNL1       -0.0627
     31 C           0.6667    3.7844    0.6131 C.3     1  UNL1       -0.0627
     32 H          -0.8061   -3.4779    1.9682 H       1  UNL1        0.0304
     33 H          -0.9685   -1.7257    2.0161 H       1  UNL1        0.0304
     34 H           1.6224   -2.7160    2.9017 H       1  UNL1        0.0307
     35 H           1.1755   -1.0446    2.5506 H       1  UNL1        0.0307
     36 H          -1.3833   -3.3490   -0.5264 H       1  UNL1        0.0267
     37 H          -1.5813   -1.6035   -0.3401 H       1  UNL1        0.0267
     38 H          -5.1319   -2.8536   -0.0500 H       1  UNL1        0.0298
     39 H          -3.3472   -2.0402    1.4304 H       1  UNL1        0.0268
     40 H          -3.1764   -3.7475    1.1291 H       1  UNL1        0.0268
     41 H           3.6077   -2.5429    1.5114 H       1  UNL1        0.0316
     42 H           3.5216   -1.0968    2.5322 H       1  UNL1        0.0316
     43 H          -4.9064   -1.3241   -1.9698 H       1  UNL1        0.0268
     44 H          -3.1865   -1.1488   -1.7167 H       1  UNL1        0.0268
     45 H           1.2003   -4.5402    1.0408 H       1  UNL1        0.0268
     46 H           0.6638   -4.0136   -0.5705 H       1  UNL1        0.0268
     47 H           2.2816   -3.6587   -0.0485 H       1  UNL1        0.0268
     48 H          -3.6454   -0.1245    0.5268 H       1  UNL1        0.0265
     49 H          -5.3791   -0.2983    0.2588 H       1  UNL1        0.0265
     50 H          -3.4951    1.3333   -1.5134 H       1  UNL1        0.0268
     51 H          -5.2274    1.2066   -1.7028 H       1  UNL1        0.0268
     52 H          -5.6488    2.4037    0.3905 H       1  UNL1        0.0298
     53 H          -2.9586   -3.6754   -2.0602 H       1  UNL1        0.0232
     54 H          -4.6984   -3.9064   -2.1981 H       1  UNL1        0.0232
     55 H          -3.7988   -4.7981   -0.9662 H       1  UNL1        0.0232
     56 H          -3.8456    3.3902    1.7250 H       1  UNL1        0.0268
     57 H          -3.7818    1.6500    1.7776 H       1  UNL1        0.0268
     58 H          -1.9107    1.7245    0.0462 H       1  UNL1        0.0265
     59 H          -1.9978    3.4798    0.1119 H       1  UNL1        0.0265
     60 H          -5.3771    3.7245   -1.6554 H       1  UNL1        0.0232
     61 H          -4.6722    4.6223   -0.3052 H       1  UNL1        0.0232
     62 H          -3.6221    3.7871   -1.4664 H       1  UNL1        0.0232
     63 H          -1.3301    3.4275    2.4994 H       1  UNL1        0.0268
     64 H          -1.3357    1.6725    2.4735 H       1  UNL1        0.0268
     65 H           0.5235    1.6547    0.8268 H       1  UNL1        0.0295
     66 H           5.6503   -1.1416    1.2406 H       1  UNL1        0.0279
     67 H           6.3076    0.2617    0.4390 H       1  UNL1        0.0279
     68 H           5.2736    0.4922    1.8547 H       1  UNL1        0.0279
     69 H           0.4229    1.1985   -2.5600 H       1  UNL1        0.0279
     70 H          -0.1785   -0.3167   -1.9480 H       1  UNL1        0.0279
     71 H           0.8863   -0.3435   -3.3471 H       1  UNL1        0.0279
     72 H           2.9701    2.6994   -2.8179 H       1  UNL1        0.0279
     73 H           4.0179    1.5140   -3.6457 H       1  UNL1        0.0279
     74 H           2.2994    1.4000   -3.8135 H       1  UNL1        0.0279
     75 H           1.1648    3.3469    3.2979 H       1  UNL1        0.0232
     76 H           2.3292    2.4224    2.3301 H       1  UNL1        0.0232
     77 H           1.0758    1.5776    3.2493 H       1  UNL1        0.0232
     78 H           0.3942    4.7036    1.1425 H       1  UNL1        0.0232
     79 H           0.1454    3.7706   -0.3488 H       1  UNL1        0.0232
     80 H           1.7384    3.8311    0.3891 H       1  UNL1        0.0232
     81 H           5.1056    2.1425   -2.0092 H       1  UNL1        0.2922
@<TRIPOS>BOND
     1     1     3    1
     2     1    14    1
     3     2    24    1
     4     2    81    1
     5     3     4    1
     6     3     5    1
     7     3    11    1
     8     4     6    1
     9     4    32    1
    10     4    33    1
    11     5     9    1
    12     5    34    1
    13     5    35    1
    14     6     8    1
    15     6    36    1
    16     6    37    1
    17     7     8    1
    18     7    10    1
    19     7    17    1
    20     7    38    1
    21     8    39    1
    22     8    40    1
    23     9    12    1
    24     9    41    1
    25     9    42    1
    26    10    13    1
    27    10    43    1
    28    10    44    1
    29    11    45    1
    30    11    46    1
    31    11    47    1
    32    12    14   ar
    33    12    19   ar
    34    13    15    1
    35    13    48    1
    36    13    49    1
    37    14    20   ar
    38    15    16    1
    39    15    50    1
    40    15    51    1
    41    16    18    1
    42    16    23    1
    43    16    52    1
    44    17    53    1
    45    17    54    1
    46    17    55    1
    47    18    21    1
    48    18    56    1
    49    18    57    1
    50    19    24   ar
    51    19    27    1
    52    20    22   ar
    53    20    28    1
    54    21    25    1
    55    21    58    1
    56    21    59    1
    57    22    24   ar
    58    22    29    1
    59    23    60    1
    60    23    61    1
    61    23    62    1
    62    25    26    1
    63    25    63    1
    64    25    64    1
    65    26    30    1
    66    26    31    1
    67    26    65    1
    68    27    66    1
    69    27    67    1
    70    27    68    1
    71    28    69    1
    72    28    70    1
    73    28    71    1
    74    29    72    1
    75    29    73    1
    76    29    74    1
    77    30    75    1
    78    30    76    1
    79    30    77    1
    80    31    78    1
    81    31    79    1
    82    31    80    1
