@<TRIPOS>MOLECULE
cholecalciferol_d3
 72 74 0 0 0
SMALL
GASTEIGER

@<TRIPOS>ATOM
      1 O          -6.6365   -0.6900   -2.1167 O.3     1  UNL1       -0.3915
      2 C           1.2287    1.2867    0.2961 C.3     1  UNL1       -0.0225
      3 C           2.4804    0.4095    0.5543 C.3     1  UNL1       -0.0325
      4 C           0.2181    0.1800   -0.0951 C.3     1  UNL1       -0.0139
      5 C           1.9307   -0.8174    1.3117 C.3     1  UNL1       -0.0489
      6 C           0.4342   -0.9016    0.9680 C.3     1  UNL1       -0.0457
      7 C           1.3933    2.2852   -0.8742 C.3     1  UNL1       -0.0465
      8 C           3.6419    1.0789    1.2749 C.3     1  UNL1       -0.0405
      9 C          -1.1547    0.7401   -0.3611 C.2     1  UNL1       -0.0659
     10 C           0.8131    2.0650    1.5717 C.3     1  UNL1       -0.0588
     11 C           0.1749    2.3379   -1.8163 C.3     1  UNL1       -0.0488
     12 C          -1.1663    2.0457   -1.1304 C.3     1  UNL1       -0.0312
     13 C           4.8535    0.1405    1.4560 C.3     1  UNL1       -0.0502
     14 C           4.0843    2.3316    0.5078 C.3     1  UNL1       -0.0621
     15 C          -2.2980    0.1554    0.0256 C.2     1  UNL1       -0.0620
     16 C           5.4379   -0.4595    0.1703 C.3     1  UNL1       -0.0526
     17 C           6.5887   -1.4392    0.4214 C.3     1  UNL1       -0.0507
     18 C          -3.6009    0.7067   -0.2517 C.2     1  UNL1       -0.0583
     19 C           7.2217   -1.9863   -0.8730 C.3     1  UNL1       -0.0467
     20 C          -4.7457    0.1218    0.1352 C.2     1  UNL1       -0.0423
     21 C          -6.0970    0.7066   -0.2111 C.3     1  UNL1       -0.0013
     22 C           7.7443   -0.8761   -1.7861 C.3     1  UNL1       -0.0627
     23 C           6.1975   -2.8353   -1.6310 C.3     1  UNL1       -0.0627
     24 C          -4.7817   -1.1345    0.8771 C.2     1  UNL1       -0.0511
     25 C          -7.0565   -0.3335   -0.8012 C.3     1  UNL1        0.0595
     26 C          -5.7286   -2.1737    0.3293 C.3     1  UNL1       -0.0256
     27 C          -7.1213   -1.5944    0.0631 C.3     1  UNL1       -0.0226
     28 C          -4.0558   -1.3497    1.9856 C.2     1  UNL1       -0.0952
     29 H           2.8229    0.0562   -0.4280 H       1  UNL1        0.0309
     30 H           0.5449   -0.2659   -1.0492 H       1  UNL1        0.0351
     31 H           2.4533   -1.7295    1.0031 H       1  UNL1        0.0268
     32 H           2.0520   -0.7215    2.3968 H       1  UNL1        0.0268
     33 H           0.1679   -1.8959    0.5934 H       1  UNL1        0.0271
     34 H          -0.1650   -0.7183    1.8674 H       1  UNL1        0.0271
     35 H           2.2575    2.0329   -1.4980 H       1  UNL1        0.0271
     36 H           1.5625    3.3008   -0.4985 H       1  UNL1        0.0271
     37 H           3.3366    1.3901    2.2816 H       1  UNL1        0.0301
     38 H          -0.1478    2.5726    1.4471 H       1  UNL1        0.0235
     39 H           0.7166    1.4121    2.4449 H       1  UNL1        0.0235
     40 H           1.5372    2.8425    1.8325 H       1  UNL1        0.0235
     41 H           0.3241    1.6047   -2.6207 H       1  UNL1        0.0268
     42 H           0.1359    3.3180   -2.3066 H       1  UNL1        0.0268
     43 H          -1.4081    2.8732   -0.4533 H       1  UNL1        0.0310
     44 H          -1.9204    2.0291   -1.9256 H       1  UNL1        0.0310
     45 H           4.5673   -0.6812    2.1247 H       1  UNL1        0.0268
     46 H           5.6488    0.6833    1.9838 H       1  UNL1        0.0268
     47 H           3.3861    3.1612    0.6234 H       1  UNL1        0.0233
     48 H           5.0352    2.7014    0.9111 H       1  UNL1        0.0233
     49 H           4.2485    2.1368   -0.5559 H       1  UNL1        0.0233
     50 H          -2.2037   -0.8114    0.5004 H       1  UNL1        0.0617
     51 H           5.7807    0.3615   -0.4658 H       1  UNL1        0.0265
     52 H           4.6498   -0.9869   -0.3719 H       1  UNL1        0.0265
     53 H           6.2326   -2.2734    1.0384 H       1  UNL1        0.0268
     54 H           7.3673   -0.9309    1.0042 H       1  UNL1        0.0268
     55 H          -3.6756    1.6448   -0.7913 H       1  UNL1        0.0620
     56 H           8.0636   -2.6294   -0.5883 H       1  UNL1        0.0295
     57 H          -5.9852    1.5337   -0.9234 H       1  UNL1        0.0338
     58 H          -6.5366    1.1241    0.7040 H       1  UNL1        0.0338
     59 H           6.9375   -0.2890   -2.2357 H       1  UNL1        0.0232
     60 H           8.3257   -1.3074   -2.6086 H       1  UNL1        0.0232
     61 H           8.4027   -0.1962   -1.2356 H       1  UNL1        0.0232
     62 H           5.3857   -2.2348   -2.0531 H       1  UNL1        0.0232
     63 H           6.6831   -3.3532   -2.4658 H       1  UNL1        0.0232
     64 H           5.7599   -3.5994   -0.9801 H       1  UNL1        0.0232
     65 H          -8.0579    0.1002   -0.8932 H       1  UNL1        0.0596
     66 H          -5.3097   -2.5855   -0.5976 H       1  UNL1        0.0314
     67 H          -5.8280   -3.0191    1.0214 H       1  UNL1        0.0314
     68 H          -7.7294   -2.3585   -0.4352 H       1  UNL1        0.0293
     69 H          -7.6060   -1.3570    1.0184 H       1  UNL1        0.0293
     70 H          -4.1165   -2.2969    2.5131 H       1  UNL1        0.0538
     71 H          -3.4208   -0.5914    2.4321 H       1  UNL1        0.0538
     72 H          -5.7073   -0.9711   -2.0857 H       1  UNL1        0.2098
@<TRIPOS>BOND
     1     1    25    1
     2     1    72    1
     3     2     3    1
     4     2     4    1
     5     2     7    1
     6     2    10    1
     7     3     5    1
     8     3     8    1
     9     3    29    1
    10     4     6    1
    11     4     9    1
    12     4    30    1
    13     5     6    1
    14     5    31    1
    15     5    32    1
    16     6    33    1
    17     6    34    1
    18     7    11    1
    19     7    35    1
    20     7    36    1
    21     8    13    1
    22     8    14    1
    23     8    37    1
    24     9    12    1
    25     9    15    2
    26    10    38    1
    27    10    39    1
    28    10    40    1
    29    11    12    1
    30    11    41    1
    31    11    42    1
    32    12    43    1
    33    12    44    1
    34    13    16    1
    35    13    45    1
    36    13    46    1
    37    14    47    1
    38    14    48    1
    39    14    49    1
    40    15    18    1
    41    15    50    1
    42    16    17    1
    43    16    51    1
    44    16    52    1
    45    17    19    1
    46    17    53    1
    47    17    54    1
    48    18    20    2
    49    18    55    1
    50    19    22    1
    51    19    23    1
    52    19    56    1
    53    20    21    1
    54    20    24    1
    55    21    25    1
    56    21    57    1
    57    21    58    1
    58    22    59    1
    59    22    60    1
    60    22    61    1
    61    23    62    1
    62    23    63    1
    63    23    64    1
    64    24    26    1
    65    24    28    2
    66    25    27    1
    67    25    65    1
    68    26    27    1
    69    26    66    1
    70    26    67    1
    71    27    68    1
    72    27    69    1
    73    28    70    1
    74    28    71    1
