@<TRIPOS>MOLECULE
ergocalciferol_d2
 73 75 0 0 0
SMALL
GASTEIGER

@<TRIPOS>ATOM
      1 O          -7.4382    0.1154   -1.3372 O.3     1  UNL1       -0.3915
      2 C           0.7927    1.4100    0.1344 C.3     1  UNL1       -0.0222
      3 C           2.0629    0.7278   -0.4350 C.3     1  UNL1       -0.0291
      4 C          -0.2912    0.6030   -0.6229 C.3     1  UNL1       -0.0139
      5 C           1.7055   -0.7731   -0.4594 C.3     1  UNL1       -0.0486
      6 C           0.1698   -0.8505   -0.4766 C.3     1  UNL1       -0.0457
      7 C           0.6743    2.9111   -0.2214 C.3     1  UNL1       -0.0465
      8 C           3.3702    1.0137    0.2900 C.3     1  UNL1       -0.0224
      9 C          -1.6831    1.0174   -0.2229 C.2     1  UNL1       -0.0659
     10 C           0.7070    1.2457    1.6742 C.3     1  UNL1       -0.0587
     11 C          -0.7369    3.3269   -0.6805 C.3     1  UNL1       -0.0488
     12 C          -1.8722    2.5108   -0.0483 C.3     1  UNL1       -0.0312
     13 C           3.6805    2.5125    0.2827 C.3     1  UNL1       -0.0587
     14 C           4.5039    0.2493   -0.3498 C.2     1  UNL1       -0.0846
     15 C          -2.7017    0.1652   -0.0372 C.2     1  UNL1       -0.0620
     16 C           5.2432   -0.6673    0.2938 C.2     1  UNL1       -0.0846
     17 C          -4.0287    0.5885    0.3347 C.2     1  UNL1       -0.0583
     18 C           6.3706   -1.4432   -0.3516 C.3     1  UNL1       -0.0234
     19 C          -5.0489   -0.2642    0.5208 C.2     1  UNL1       -0.0423
     20 C           7.7246   -1.1765    0.3659 C.3     1  UNL1       -0.0407
     21 C          -6.4393    0.2193    0.8683 C.3     1  UNL1       -0.0013
     22 C           5.9882   -2.9280   -0.3500 C.3     1  UNL1       -0.0587
     23 C          -4.9121   -1.7087    0.3635 C.2     1  UNL1       -0.0511
     24 C          -7.5217   -0.4125   -0.0149 C.3     1  UNL1        0.0595
     25 C          -5.9720   -2.3622   -0.4887 C.3     1  UNL1       -0.0256
     26 C          -7.3830   -1.9351   -0.0735 C.3     1  UNL1       -0.0226
     27 C           8.1062    0.3086    0.3496 C.3     1  UNL1       -0.0621
     28 C           8.8688   -1.9847   -0.2635 C.3     1  UNL1       -0.0621
     29 C          -3.9393   -2.4195    0.9554 C.2     1  UNL1       -0.0952
     30 H           2.1745    1.0415   -1.4856 H       1  UNL1        0.0312
     31 H          -0.2101    0.8381   -1.6972 H       1  UNL1        0.0351
     32 H           2.0853   -1.3052    0.4205 H       1  UNL1        0.0268
     33 H           2.1282   -1.2601   -1.3454 H       1  UNL1        0.0268
     34 H          -0.1876   -1.4734   -1.3037 H       1  UNL1        0.0271
     35 H          -0.1904   -1.3029    0.4548 H       1  UNL1        0.0271
     36 H           1.3631    3.1858   -1.0278 H       1  UNL1        0.0271
     37 H           0.9400    3.5347    0.6402 H       1  UNL1        0.0271
     38 H           3.2948    0.6964    1.3377 H       1  UNL1        0.0343
     39 H           1.4757    1.8328    2.1869 H       1  UNL1        0.0235
     40 H          -0.2536    1.5867    2.0708 H       1  UNL1        0.0235
     41 H           0.8314    0.2054    1.9908 H       1  UNL1        0.0235
     42 H          -0.7937    3.2195   -1.7723 H       1  UNL1        0.0268
     43 H          -0.8867    4.3936   -0.4751 H       1  UNL1        0.0268
     44 H          -2.7978    2.8506   -0.5271 H       1  UNL1        0.0310
     45 H          -1.9351    2.7546    1.0186 H       1  UNL1        0.0310
     46 H           3.6153    2.9416   -0.7227 H       1  UNL1        0.0235
     47 H           4.7045    2.6889    0.6359 H       1  UNL1        0.0235
     48 H           3.0360    3.0735    0.9611 H       1  UNL1        0.0235
     49 H           4.7174    0.4656   -1.3943 H       1  UNL1        0.0572
     50 H          -2.5017   -0.8742   -0.2577 H       1  UNL1        0.0617
     51 H           5.0316   -0.8851    1.3383 H       1  UNL1        0.0572
     52 H          -4.2258    1.6448    0.4837 H       1  UNL1        0.0620
     53 H           6.4699   -1.1312   -1.4004 H       1  UNL1        0.0343
     54 H           7.6390   -1.4856    1.4165 H       1  UNL1        0.0301
     55 H          -6.6391   -0.0318    1.9180 H       1  UNL1        0.0338
     56 H          -6.4984    1.3113    0.7793 H       1  UNL1        0.0338
     57 H           6.6748   -3.5161   -0.9667 H       1  UNL1        0.0235
     58 H           4.9838   -3.0771   -0.7637 H       1  UNL1        0.0235
     59 H           5.9987   -3.3433    0.6640 H       1  UNL1        0.0235
     60 H          -8.5120   -0.1487    0.3713 H       1  UNL1        0.0596
     61 H          -5.7952   -2.1027   -1.5402 H       1  UNL1        0.0314
     62 H          -5.9058   -3.4557   -0.4289 H       1  UNL1        0.0314
     63 H          -8.1002   -2.3485   -0.7923 H       1  UNL1        0.0293
     64 H          -7.6181   -2.3606    0.9102 H       1  UNL1        0.0293
     65 H           9.0797    0.4658    0.8269 H       1  UNL1        0.0233
     66 H           8.1678    0.6895   -0.6755 H       1  UNL1        0.0233
     67 H           7.3793    0.9171    0.8967 H       1  UNL1        0.0233
     68 H           8.9509   -1.7852   -1.3373 H       1  UNL1        0.0233
     69 H           9.8274   -1.7295    0.2016 H       1  UNL1        0.0233
     70 H           8.7242   -3.0599   -0.1221 H       1  UNL1        0.0233
     71 H          -3.8767   -3.4948    0.8188 H       1  UNL1        0.0538
     72 H          -3.2088   -1.9772    1.6251 H       1  UNL1        0.0538
     73 H          -6.5317   -0.0003   -1.6663 H       1  UNL1        0.2098
@<TRIPOS>BOND
     1     1    24    1
     2     1    73    1
     3     2     3    1
     4     2     4    1
     5     2     7    1
     6     2    10    1
     7     3     5    1
     8     3     8    1
     9     3    30    1
    10     4     6    1
    11     4     9    1
    12     4    31    1
    13     5     6    1
    14     5    32    1
    15     5    33    1
    16     6    34    1
    17     6    35    1
    18     7    11    1
    19     7    36    1
    20     7    37    1
    21     8    13    1
    22     8    14    1
    23     8    38    1
    24     9    12    1
    25     9    15    2
    26    10    39    1
    27    10    40    1
    28    10    41    1
    29    11    12    1
    30    11    42    1
    31    11    43    1
    32    12    44    1
    33    12    45    1
    34    13    46    1
    35    13    47    1
    36    13    48    1
    37    14    16    2
    38    14    49    1
    39    15    17    1
    40    15    50    1
    41    16    18    1
    42    16    51    1
    43    17    19    2
    44    17    52    1
    45    18    20    1
    46    18    22    1
    47    18    53    1
    48    19    21    1
    49    19    23    1
    50    20    27    1
    51    20    28    1
    52    20    54    1
    53    21    24    1
    54    21    55    1
    55    21    56    1
    56    22    57    1
    57    22    58    1
    58    22    59    1
    59    23    25    1
    60    23    29    2
    61    24    26    1
    62    24    60    1
    63    25    26    1
    64    25    61    1
    65    25    62    1
    66    26    63    1
    67    26    64    1
    68    27    65    1
    69    27    66    1
    70    27    67    1
    71    28    68    1
    72    28    69    1
    73    28    70    1
    74    29    71    1
    75    29    72    1
