@<TRIPOS>MOLECULE
folic_acid_b9
 51 53 0 0 0
SMALL
GASTEIGER

@<TRIPOS>ATOM
      1 O           8.0491    1.4182   -1.5277 O.3     1  GLU1       -0.4793
      2 O           4.4122    1.6200    1.9568 O.2     0  UNK0       -0.2702
      3 OXT         6.0108    1.3252   -2.5211 O.2     1  GLU1       -0.2489
      4 OE1         6.8042   -4.0838   -0.6649 O.3     1  GLU1       -0.4806
      5 OE2         7.6945   -3.0943    1.1724 O.2     1  GLU1       -0.2510
      6 O          -5.9093   -2.9204    0.4122 O.2     0  UNK0       -0.2654
      7 N           4.7608    0.8276   -0.1949 N.am    1  GLU1       -0.2983
      8 N          -1.6476    0.9081    0.1046 N.pl3   0  UNK0       -0.3382
      9 N          -4.5536   -0.5710    0.6074 N.ar    0  UNK0       -0.2400
     10 N          -5.9069    1.7503   -0.2175 N.ar    0  UNK0       -0.2324
     11 N          -7.7726   -1.8360   -0.4395 N.ar    0  UNK0       -0.2934
     12 N          -7.8097    0.4978   -0.7690 N.ar    0  UNK0       -0.1947
     13 N          -9.6859   -0.8042   -1.3041 N.pl3   0  UNK0       -0.3289
     14 CA          6.2009    0.8273   -0.1446 C.3     1  GLU1        0.1209
     15 CB          6.7744   -0.4895    0.3926 C.3     1  GLU1       -0.0140
     16 CG          6.4736   -1.7401   -0.4432 C.3     1  GLU1        0.0470
     17 C           3.9759    1.2302    0.8769 C.2     0  UNK0        0.2447
     18 C           2.5065    1.1468    0.6752 C.ar    0  UNK0        0.0368
     19 C           6.7081    1.1983   -1.5230 C.2     1  GLU1        0.3253
     20 C          -0.2529    0.9878    0.2968 C.ar    0  UNK0        0.0275
     21 C          -2.5714    0.7288    1.1818 C.3     0  UNK0        0.0530
     22 C           1.6612    0.9708    1.7708 C.ar    0  UNK0       -0.0479
     23 C           1.9719    1.2436   -0.6095 C.ar    0  UNK0       -0.0479
     24 C           0.2816    0.8911    1.5817 C.ar    0  UNK0       -0.0401
     25 C           0.5922    1.1640   -0.7987 C.ar    0  UNK0       -0.0401
     26 CD          7.0506   -3.0138    0.1355 C.2     1  GLU1        0.3048
     27 C          -3.9793    0.6457    0.6605 C.ar    0  UNK0        0.0773
     28 C          -5.8144   -0.5927    0.1335 C.ar    0  UNK0        0.1725
     29 C          -4.6431    1.7843    0.2561 C.ar    0  UNK0        0.0528
     30 C          -6.4957    0.5378   -0.2767 C.ar    0  UNK0        0.1870
     31 C          -6.4805   -1.8968    0.0578 C.ar    0  UNK0        0.2803
     32 C          -8.4056   -0.6611   -0.8382 C.ar    0  UNK0        0.1950
     33 HA          6.5038    1.6400    0.5281 H       1  GLU1        0.0614
     34 HB1         7.8637   -0.3918    0.4885 H       1  GLU1        0.0294
     35 HB2         6.3965   -0.6519    1.4108 H       1  GLU1        0.0294
     36 HG1         6.8889   -1.6163   -1.4495 H       1  GLU1        0.0378
     37 HG2         5.3897   -1.8775   -0.5243 H       1  GLU1        0.0378
     38 H           4.3296    0.4399   -1.0276 H       1  GLU1        0.1498
     39 H          -2.5128    1.5573    1.8988 H       0  UNK0        0.0527
     40 H          -2.3526   -0.1978    1.7273 H       0  UNK0        0.0527
     41 H           2.0592    0.8888    2.7789 H       0  UNK0        0.0626
     42 H           2.5912    1.4123   -1.4855 H       0  UNK0        0.0626
     43 H          -1.9866    0.9798   -0.8489 H       0  UNK0        0.1465
     44 H          -0.3396    0.7540    2.4616 H       0  UNK0        0.0636
     45 H           0.1874    1.2477   -1.8041 H       0  UNK0        0.0636
     46 H          -4.1876    2.7670    0.2961 H       0  UNK0        0.0849
     47 H           8.3741    1.6738   -2.4173 H       1  GLU1        0.2951
     48 H          -8.2907   -2.7061   -0.5181 H       0  UNK0        0.1716
     49 HE1         7.1925   -4.9084   -0.3022 H       1  GLU1        0.2951
     50 H         -10.2237   -0.0031   -1.6162 H       0  UNK0        0.1451
     51 H         -10.1334   -1.7130   -1.3509 H       0  UNK0        0.1451
@<TRIPOS>BOND
     1     1    19    1
     2     1    47    1
     3     2    17    2
     4     3    19    2
     5     4    26    1
     6     4    49    1
     7     5    26    2
     8     6    31    2
     9     7    14    1
    10     7    17   am
    11     7    38    1
    12     8    20    1
    13     8    21    1
    14     8    43    1
    15     9    27   ar
    16     9    28   ar
    17    10    29   ar
    18    10    30   ar
    19    11    31   ar
    20    11    32   ar
    21    11    48    1
    22    12    30   ar
    23    12    32   ar
    24    13    32    1
    25    13    50    1
    26    13    51    1
    27    14    15    1
    28    14    19    1
    29    14    33    1
    30    15    16    1
    31    15    34    1
    32    15    35    1
    33    16    26    1
    34    16    36    1
    35    16    37    1
    36    17    18    1
    37    18    22   ar
    38    18    23   ar
    39    20    24   ar
    40    20    25   ar
    41    21    27    1
    42    21    39    1
    43    21    40    1
    44    22    24   ar
    45    22    41    1
    46    23    25   ar
    47    23    42    1
    48    24    44    1
    49    25    45    1
    50    27    29   ar
    51    28    30   ar
    52    28    31   ar
    53    29    46    1
