@<TRIPOS>MOLECULE
menadione_k3
 21 22 0 0 0
SMALL
GASTEIGER

@<TRIPOS>ATOM
      1 O           1.3588    2.3003   -0.0014 O.2     1  UNL1       -0.2870
      2 O           0.0774   -2.8887    0.0000 O.2     1  UNL1       -0.2872
      3 C          -0.3588    0.6927   -0.0003 C.ar    1  UNL1        0.0327
      4 C          -0.7008   -0.6604   -0.0005 C.ar    1  UNL1        0.0325
      5 C           2.1003    0.0500    0.0001 C.2     1  UNL1        0.0004
      6 C           1.0574    1.1120   -0.0005 C.2     1  UNL1        0.1897
      7 C           0.3489   -1.6942   -0.0006 C.2     1  UNL1        0.1871
      8 C           1.7554   -1.2427    0.0002 C.2     1  UNL1       -0.0078
      9 C          -1.3662    1.6652    0.0005 C.ar    1  UNL1       -0.0502
     10 C          -2.0471   -1.0435   -0.0003 C.ar    1  UNL1       -0.0503
     11 C           3.5295    0.4998    0.0015 C.3     1  UNL1       -0.0359
     12 C          -2.7075    1.2804    0.0009 C.ar    1  UNL1       -0.0610
     13 C          -3.0473   -0.0711    0.0004 C.ar    1  UNL1       -0.0610
     14 H           2.5103   -2.0229    0.0009 H       1  UNL1        0.0660
     15 H          -1.1280    2.7254    0.0007 H       1  UNL1        0.0625
     16 H          -2.3361   -2.0911   -0.0005 H       1  UNL1        0.0625
     17 H           4.2260   -0.3454    0.0025 H       1  UNL1        0.0279
     18 H           3.7397    1.1035    0.8905 H       1  UNL1        0.0279
     19 H           3.7416    1.1028   -0.8876 H       1  UNL1        0.0279
     20 H          -3.4881    2.0358    0.0015 H       1  UNL1        0.0618
     21 H          -4.0921   -0.3678    0.0006 H       1  UNL1        0.0618
@<TRIPOS>BOND
     1     1     6    2
     2     2     7    2
     3     3     4   ar
     4     3     6    1
     5     3     9   ar
     6     4     7    1
     7     4    10   ar
     8     5     6    1
     9     5     8    2
    10     5    11    1
    11     7     8    1
    12     8    14    1
    13     9    12   ar
    14     9    15    1
    15    10    13   ar
    16    10    16    1
    17    11    17    1
    18    11    18    1
    19    11    19    1
    20    12    13   ar
    21    12    20    1
    22    13    21    1
