@<TRIPOS>MOLECULE
niacin_b3
 14 14 0 0 0
SMALL
GASTEIGER

@<TRIPOS>ATOM
      1 O          -2.2827   -1.2029   -0.0007 O.3     1  UNL1       -0.4771
      2 O          -2.4704    1.0624    0.0002 O.2     1  UNL1       -0.2451
      3 N           1.7570   -1.2165    0.0002 N.ar    1  UNL1       -0.2624
      4 C          -0.3036    0.0481    0.0002 C.ar    1  UNL1        0.0769
      5 C           0.4175    1.2369   -0.0001 C.ar    1  UNL1       -0.0449
      6 C           0.4071   -1.1414    0.0003 C.ar    1  UNL1        0.0415
      7 C           1.8075    1.2006   -0.0003 C.ar    1  UNL1       -0.0428
      8 C           2.4237   -0.0404   -0.0001 C.ar    1  UNL1        0.0276
      9 C          -1.7560    0.0531    0.0003 C.2     1  UNL1        0.3383
     10 H          -0.0859    2.1999   -0.0002 H       1  UNL1        0.0627
     11 H          -0.0752   -2.1137    0.0006 H       1  UNL1        0.0838
     12 H           2.3902    2.1147   -0.0006 H       1  UNL1        0.0633
     13 H           3.5056   -0.1232   -0.0002 H       1  UNL1        0.0829
     14 H          -3.2636   -1.1870   -0.0011 H       1  UNL1        0.2954
@<TRIPOS>BOND
     1     1     9    1
     2     1    14    1
     3     2     9    2
     4     3     6   ar
     5     3     8   ar
     6     4     5   ar
     7     4     6   ar
     8     4     9    1
     9     5     7   ar
    10     5    10    1
    11     6    11    1
    12     7     8   ar
    13     7    12    1
    14     8    13    1
