@<TRIPOS>MOLECULE
nicotinamide_b3
 15 15 0 0 0
SMALL
GASTEIGER

@<TRIPOS>ATOM
      1 O          -2.3940    1.1116   -0.0088 O.2     1  UNL1       -0.2704
      2 N           1.7614   -1.2284   -0.0034 N.ar    1  UNL1       -0.2625
      3 N          -2.4052   -1.1814    0.0027 N.am    1  UNL1       -0.3253
      4 C          -0.2969    0.0397    0.0024 C.ar    1  UNL1        0.0545
      5 C           0.4261    1.2273    0.0039 C.ar    1  UNL1       -0.0467
      6 C           0.4117   -1.1510   -0.0013 C.ar    1  UNL1        0.0396
      7 C           1.8161    1.1886    0.0018 C.ar    1  UNL1       -0.0429
      8 C          -1.7494    0.0472    0.0045 C.2     1  UNL1        0.2430
      9 C           2.4302   -0.0535   -0.0018 C.ar    1  UNL1        0.0276
     10 H          -0.0720    2.1930    0.0070 H       1  UNL1        0.0626
     11 H          -0.0488   -2.1309   -0.0033 H       1  UNL1        0.0837
     12 H           2.4005    2.1016    0.0029 H       1  UNL1        0.0633
     13 H           3.5119   -0.1381   -0.0035 H       1  UNL1        0.0829
     14 H          -1.9562   -2.0884    0.0084 H       1  UNL1        0.1453
     15 H          -3.4202   -1.2053   -0.0028 H       1  UNL1        0.1453
@<TRIPOS>BOND
     1     1     8    2
     2     2     6   ar
     3     2     9   ar
     4     3     8   am
     5     3    14    1
     6     3    15    1
     7     4     5   ar
     8     4     6   ar
     9     4     8    1
    10     5     7   ar
    11     5    10    1
    12     6    11    1
    13     7     9   ar
    14     7    12    1
    15     9    13    1
