@<TRIPOS>MOLECULE
pantothenic_acid_b5
 32 31 0 0 0
SMALL
GASTEIGER

@<TRIPOS>ATOM
      1 O          -2.7529   -1.6944    0.3338 O.3     1  UNL1       -0.3820
      2 O          -1.1073    2.8794   -0.1963 O.3     1  UNL1       -0.3944
      3 O          -0.4849   -2.1185   -1.0750 O.2     1  UNL1       -0.2730
      4 O           3.0808    1.6130   -0.8793 O.3     1  UNL1       -0.4806
      5 O           3.1511    0.7907    1.2359 O.2     1  UNL1       -0.2510
      6 N           0.7332   -1.2229    0.6850 N.am    1  UNL1       -0.3126
      7 C          -1.9812    0.6018    0.0455 C.3     1  UNL1        0.0227
      8 C          -1.6583   -0.8196    0.5944 C.3     1  UNL1        0.1380
      9 C          -0.8103    1.5810    0.3060 C.3     1  UNL1        0.0521
     10 C          -3.2442    1.1325    0.7652 C.3     1  UNL1       -0.0549
     11 C          -2.2943    0.5540   -1.4634 C.3     1  UNL1       -0.0549
     12 C          -0.4266   -1.4698   -0.0320 C.2     1  UNL1        0.2423
     13 C           2.0300   -1.7115    0.2765 C.3     1  UNL1        0.0217
     14 C           2.7534   -0.7251   -0.6309 C.3     1  UNL1        0.0603
     15 C           3.0116    0.6094    0.0344 C.2     1  UNL1        0.3062
     16 H          -1.5327   -0.7829    1.6829 H       1  UNL1        0.0696
     17 H           0.1113    1.2509   -0.1806 H       1  UNL1        0.0563
     18 H          -0.6120    1.6730    1.3791 H       1  UNL1        0.0563
     19 H          -4.1100    0.4836    0.5926 H       1  UNL1        0.0237
     20 H          -3.5178    2.1340    0.4149 H       1  UNL1        0.0237
     21 H          -3.0818    1.1920    1.8473 H       1  UNL1        0.0237
     22 H          -2.5998    1.5361   -1.8421 H       1  UNL1        0.0237
     23 H          -3.1191   -0.1275   -1.6946 H       1  UNL1        0.0237
     24 H          -1.4210    0.2403   -2.0445 H       1  UNL1        0.0237
     25 H           0.6858   -0.6646    1.5322 H       1  UNL1        0.1488
     26 H          -2.7892   -1.8752   -0.6200 H       1  UNL1        0.2105
     27 H           2.6061   -1.8916    1.1903 H       1  UNL1        0.0467
     28 H           1.9057   -2.6688   -0.2410 H       1  UNL1        0.0467
     29 H          -0.9919    2.8577   -1.1611 H       1  UNL1        0.2094
     30 H           2.1476   -0.5520   -1.5284 H       1  UNL1        0.0393
     31 H           3.7194   -1.1368   -0.9412 H       1  UNL1        0.0393
     32 H           3.2493    2.4816   -0.4557 H       1  UNL1        0.2951
@<TRIPOS>BOND
     1     1     8    1
     2     1    26    1
     3     2     9    1
     4     2    29    1
     5     3    12    2
     6     4    15    1
     7     4    32    1
     8     5    15    2
     9     6    12   am
    10     6    13    1
    11     6    25    1
    12     7     8    1
    13     7     9    1
    14     7    10    1
    15     7    11    1
    16     8    12    1
    17     8    16    1
    18     9    17    1
    19     9    18    1
    20    10    19    1
    21    10    20    1
    22    10    21    1
    23    11    22    1
    24    11    23    1
    25    11    24    1
    26    13    14    1
    27    13    27    1
    28    13    28    1
    29    14    15    1
    30    14    30    1
    31    14    31    1
