@<TRIPOS>MOLECULE
phylloquinone_k1
 79 80 0 0 0
SMALL
GASTEIGER

@<TRIPOS>ATOM
      1 O           0.2340    0.4728   -0.4820 O.2     1  UNL1       -0.2869
      2 O           5.4491   -0.1505    0.4683 O.2     1  UNL1       -0.2870
      3 C          -3.4542    1.0373    1.5973 C.3     1  UNL1       -0.0439
      4 C          -3.8115   -0.4606    1.6730 C.3     1  UNL1       -0.0505
      5 C          -1.8168   -3.8313    1.5000 C.3     1  UNL1       -0.0439
      6 C          -2.6006   -1.3815    1.4807 C.3     1  UNL1       -0.0526
      7 C          -3.0063   -2.8552    1.5917 C.3     1  UNL1       -0.0505
      8 C          -3.1937    1.4870    0.1418 C.3     1  UNL1       -0.0505
      9 C          -0.9806   -3.7067    0.2092 C.3     1  UNL1       -0.0502
     10 C          -2.7444    2.9433   -0.0205 C.3     1  UNL1       -0.0526
     11 C          -2.5555    3.3608   -1.4854 C.3     1  UNL1       -0.0507
     12 C          -4.5061    1.9173    2.2778 C.3     1  UNL1       -0.0624
     13 C          -1.7325   -4.0229   -1.0889 C.3     1  UNL1       -0.0491
     14 C          -2.3107   -5.2673    1.7066 C.3     1  UNL1       -0.0624
     15 C          -2.0397    4.7937   -1.7176 C.3     1  UNL1       -0.0467
     16 C          -0.8283   -3.8182   -2.3104 C.3     1  UNL1       -0.0320
     17 C          -1.9624    5.0766   -3.2208 C.3     1  UNL1       -0.0627
     18 C          -0.6729    5.0348   -1.0759 C.3     1  UNL1       -0.0627
     19 C          -0.3500   -2.3855   -2.4432 C.2     1  UNL1       -0.0762
     20 C           0.9661   -2.1035   -2.3747 C.2     1  UNL1       -0.0806
     21 C          -1.4270   -1.3644   -2.6880 C.3     1  UNL1       -0.0438
     22 C           1.6266   -0.7637   -2.5212 C.3     1  UNL1       -0.0052
     23 C           2.3227   -0.3435   -1.2711 C.2     1  UNL1        0.0102
     24 C           3.6343   -0.5189   -1.0223 C.2     1  UNL1        0.0039
     25 C           1.4347    0.3305   -0.2743 C.2     1  UNL1        0.1905
     26 C           2.0290    0.8216    0.9790 C.ar    1  UNL1        0.0327
     27 C           3.3871    0.6546    1.2289 C.ar    1  UNL1        0.0327
     28 C           4.2503   -0.0167    0.2444 C.2     1  UNL1        0.1900
     29 C           4.5985   -1.2263   -1.9374 C.3     1  UNL1       -0.0357
     30 C           1.2182    1.4618    1.9254 C.ar    1  UNL1       -0.0502
     31 C           3.9403    1.1276    2.4262 C.ar    1  UNL1       -0.0502
     32 C           1.7714    1.9318    3.1167 C.ar    1  UNL1       -0.0610
     33 C           3.1310    1.7651    3.3668 C.ar    1  UNL1       -0.0610
     34 H          -2.5223    1.1826    2.1608 H       1  UNL1        0.0298
     35 H          -4.5851   -0.6966    0.9319 H       1  UNL1        0.0268
     36 H          -4.2463   -0.6751    2.6576 H       1  UNL1        0.0268
     37 H          -1.1403   -3.6032    2.3353 H       1  UNL1        0.0298
     38 H          -2.1523   -1.1937    0.5034 H       1  UNL1        0.0265
     39 H          -1.8410   -1.1525    2.2377 H       1  UNL1        0.0265
     40 H          -3.7478   -3.0888    0.8182 H       1  UNL1        0.0268
     41 H          -3.5100   -3.0091    2.5551 H       1  UNL1        0.0268
     42 H          -2.4314    0.8452   -0.3108 H       1  UNL1        0.0268
     43 H          -4.1096    1.3344   -0.4441 H       1  UNL1        0.0268
     44 H          -0.1227   -4.3882    0.2877 H       1  UNL1        0.0268
     45 H          -0.5506   -2.7004    0.1754 H       1  UNL1        0.0268
     46 H          -1.8078    3.0734    0.5318 H       1  UNL1        0.0265
     47 H          -3.4788    3.6223    0.4246 H       1  UNL1        0.0265
     48 H          -3.5170    3.2436   -2.0023 H       1  UNL1        0.0268
     49 H          -1.8638    2.6529   -1.9618 H       1  UNL1        0.0268
     50 H          -4.7288    1.5455    3.2839 H       1  UNL1        0.0232
     51 H          -4.1601    2.9485    2.3921 H       1  UNL1        0.0232
     52 H          -5.4411    1.9253    1.7078 H       1  UNL1        0.0232
     53 H          -2.6334   -3.4075   -1.1775 H       1  UNL1        0.0268
     54 H          -2.0641   -5.0673   -1.0825 H       1  UNL1        0.0268
     55 H          -2.7611   -5.3786    2.6991 H       1  UNL1        0.0232
     56 H          -1.4821   -5.9798    1.6375 H       1  UNL1        0.0232
     57 H          -3.0679   -5.5475    0.9675 H       1  UNL1        0.0232
     58 H          -2.7555    5.4980   -1.2753 H       1  UNL1        0.0295
     59 H           0.0181   -4.5142   -2.2512 H       1  UNL1        0.0310
     60 H          -1.3819   -4.0913   -3.2174 H       1  UNL1        0.0310
     61 H          -2.9419    4.9449   -3.6926 H       1  UNL1        0.0232
     62 H          -1.6398    6.1065   -3.4066 H       1  UNL1        0.0232
     63 H          -1.2534    4.4044   -3.7163 H       1  UNL1        0.0232
     64 H          -0.2962    6.0323   -1.3270 H       1  UNL1        0.0232
     65 H          -0.7294    4.9773    0.0152 H       1  UNL1        0.0232
     66 H           0.0625    4.2993   -1.4195 H       1  UNL1        0.0232
     67 H           1.6557   -2.9312   -2.2105 H       1  UNL1        0.0575
     68 H          -1.0525   -0.3766   -2.9602 H       1  UNL1        0.0274
     69 H          -2.0540   -1.2404   -1.8019 H       1  UNL1        0.0274
     70 H          -2.0679   -1.6912   -3.5144 H       1  UNL1        0.0274
     71 H           0.9357    0.0219   -2.8399 H       1  UNL1        0.0357
     72 H           2.3268   -0.8272   -3.3622 H       1  UNL1        0.0357
     73 H           4.1117   -1.7751   -2.7466 H       1  UNL1        0.0279
     74 H           5.1833   -1.9662   -1.3793 H       1  UNL1        0.0279
     75 H           5.2905   -0.5055   -2.3851 H       1  UNL1        0.0279
     76 H           0.1545    1.6038    1.7539 H       1  UNL1        0.0625
     77 H           4.9982    1.0095    2.6453 H       1  UNL1        0.0625
     78 H           1.1409    2.4278    3.8489 H       1  UNL1        0.0618
     79 H           3.5616    2.1310    4.2943 H       1  UNL1        0.0618
@<TRIPOS>BOND
     1     1    25    2
     2     2    28    2
     3     3     4    1
     4     3     8    1
     5     3    12    1
     6     3    34    1
     7     4     6    1
     8     4    35    1
     9     4    36    1
    10     5     7    1
    11     5     9    1
    12     5    14    1
    13     5    37    1
    14     6     7    1
    15     6    38    1
    16     6    39    1
    17     7    40    1
    18     7    41    1
    19     8    10    1
    20     8    42    1
    21     8    43    1
    22     9    13    1
    23     9    44    1
    24     9    45    1
    25    10    11    1
    26    10    46    1
    27    10    47    1
    28    11    15    1
    29    11    48    1
    30    11    49    1
    31    12    50    1
    32    12    51    1
    33    12    52    1
    34    13    16    1
    35    13    53    1
    36    13    54    1
    37    14    55    1
    38    14    56    1
    39    14    57    1
    40    15    17    1
    41    15    18    1
    42    15    58    1
    43    16    19    1
    44    16    59    1
    45    16    60    1
    46    17    61    1
    47    17    62    1
    48    17    63    1
    49    18    64    1
    50    18    65    1
    51    18    66    1
    52    19    20    2
    53    19    21    1
    54    20    22    1
    55    20    67    1
    56    21    68    1
    57    21    69    1
    58    21    70    1
    59    22    23    1
    60    22    71    1
    61    22    72    1
    62    23    24    2
    63    23    25    1
    64    24    28    1
    65    24    29    1
    66    25    26    1
    67    26    27   ar
    68    26    30   ar
    69    27    28    1
    70    27    31   ar
    71    29    73    1
    72    29    74    1
    73    29    75    1
    74    30    32   ar
    75    30    76    1
    76    31    33   ar
    77    31    77    1
    78    32    33   ar
    79    32    78    1
    80    33    79    1
