@<TRIPOS>MOLECULE
pyridoxamine_b6
 24 24 0 0 0
SMALL
GASTEIGER

@<TRIPOS>ATOM
      1 O           1.6171    1.8573   -0.5127 O.3     1  UNL1       -0.5047
      2 O          -2.8844   -1.2805   -0.9392 O.3     1  UNL1       -0.3904
      3 N           1.3314   -1.6823    0.3209 N.ar    1  UNL1       -0.2562
      4 N          -1.4749    2.4509    0.8991 N.3     1  UNL1       -0.3260
      5 C          -0.3291    0.5255   -0.1062 C.ar    1  UNL1        0.0161
      6 C          -0.8801   -0.7120    0.2078 C.ar    1  UNL1        0.0038
      7 C           1.0511    0.6604   -0.2068 C.ar    1  UNL1        0.1425
      8 C          -1.2144    1.7084   -0.3338 C.3     1  UNL1        0.0225
      9 C           1.8304   -0.4638    0.0140 C.ar    1  UNL1        0.0798
     10 C          -2.3509   -0.9146    0.3281 C.3     1  UNL1        0.0711
     11 C          -0.0145   -1.7749    0.4099 C.ar    1  UNL1        0.0338
     12 C           3.3184   -0.3744   -0.0812 C.3     1  UNL1       -0.0188
     13 H          -0.7586    2.3884   -1.0642 H       1  UNL1        0.0473
     14 H          -2.1632    1.4191   -0.7981 H       1  UNL1        0.0473
     15 H          -2.5690   -1.7280    1.0301 H       1  UNL1        0.0608
     16 H          -2.8870   -0.0419    0.7101 H       1  UNL1        0.0608
     17 H          -0.3824   -2.7664    0.6554 H       1  UNL1        0.0833
     18 H           3.7131    0.3325    0.6555 H       1  UNL1        0.0294
     19 H           3.7786   -1.3479    0.1210 H       1  UNL1        0.0294
     20 H           3.6259   -0.0708   -1.0871 H       1  UNL1        0.0294
     21 H          -2.0765    3.2467    0.6898 H       1  UNL1        0.1185
     22 H          -0.6026    2.8440    1.2514 H       1  UNL1        0.1185
     23 H           2.5839    1.7925   -0.5463 H       1  UNL1        0.2922
     24 H          -2.2931   -1.9358   -1.3469 H       1  UNL1        0.2098
@<TRIPOS>BOND
     1     1     7    1
     2     1    23    1
     3     2    10    1
     4     2    24    1
     5     3     9   ar
     6     3    11   ar
     7     4     8    1
     8     4    21    1
     9     4    22    1
    10     5     6   ar
    11     5     7   ar
    12     5     8    1
    13     6    10    1
    14     6    11   ar
    15     7     9   ar
    16     8    13    1
    17     8    14    1
    18     9    12    1
    19    10    15    1
    20    10    16    1
    21    11    17    1
    22    12    18    1
    23    12    19    1
    24    12    20    1
