@<TRIPOS>MOLECULE
pyridoxine_b6
 23 23 0 0 0
SMALL
GASTEIGER

@<TRIPOS>ATOM
      1 O           1.6380    1.8421   -0.5091 O.3     1  UNL1       -0.5046
      2 O          -1.3948    2.4034    0.9095 O.3     1  UNL1       -0.3903
      3 O          -2.9071   -1.2315   -0.9397 O.3     1  UNL1       -0.3904
      4 N           1.3042   -1.6957    0.3140 N.ar    1  UNL1       -0.2562
      5 C          -0.3260    0.5362   -0.1042 C.ar    1  UNL1        0.0278
      6 C          -0.8938   -0.6945    0.2066 C.ar    1  UNL1        0.0047
      7 C           1.0558    0.6523   -0.2061 C.ar    1  UNL1        0.1434
      8 C           1.8197   -0.4833    0.0102 C.ar    1  UNL1        0.0798
      9 C          -1.1950    1.7320   -0.3271 C.3     1  UNL1        0.0731
     10 C          -2.3670   -0.8770    0.3281 C.3     1  UNL1        0.0711
     11 C          -0.0427   -1.7698    0.4044 C.ar    1  UNL1        0.0338
     12 C           3.3087   -0.4142   -0.0865 C.3     1  UNL1       -0.0188
     13 H          -0.7279    2.4332   -1.0280 H       1  UNL1        0.0608
     14 H          -2.1643    1.4778   -0.7669 H       1  UNL1        0.0608
     15 H          -2.5968   -1.6880    1.0290 H       1  UNL1        0.0608
     16 H          -2.8868    0.0051    0.7125 H       1  UNL1        0.0608
     17 H          -0.4241   -2.7569    0.6473 H       1  UNL1        0.0833
     18 H           3.7142    0.2850    0.6518 H       1  UNL1        0.0294
     19 H           3.7556   -1.3946    0.1124 H       1  UNL1        0.0294
     20 H           3.6192   -0.1121   -1.0919 H       1  UNL1        0.0294
     21 H           2.6038    1.7639   -0.5446 H       1  UNL1        0.2922
     22 H          -1.9534    3.1781    0.7268 H       1  UNL1        0.2098
     23 H          -2.3284   -1.8980   -1.3474 H       1  UNL1        0.2098
@<TRIPOS>BOND
     1     1     7    1
     2     1    21    1
     3     2     9    1
     4     2    22    1
     5     3    10    1
     6     3    23    1
     7     4     8   ar
     8     4    11   ar
     9     5     6   ar
    10     5     7   ar
    11     5     9    1
    12     6    10    1
    13     6    11   ar
    14     7     8   ar
    15     8    12    1
    16     9    13    1
    17     9    14    1
    18    10    15    1
    19    10    16    1
    20    11    17    1
    21    12    18    1
    22    12    19    1
    23    12    20    1
