@<TRIPOS>MOLECULE
pyridoxal_b6
 21 21 0 0 0
SMALL
GASTEIGER

@<TRIPOS>ATOM
      1 O           1.7192    1.7115   -0.3029 O.3     1  UNL1       -0.5043
      2 O          -3.0788   -0.9346   -0.8606 O.3     1  UNL1       -0.3903
      3 O          -0.6228    2.8601    0.3345 O.2     1  UNL1       -0.2956
      4 N           1.1182   -1.8555    0.1619 N.ar    1  UNL1       -0.2562
      5 C          -0.9917   -0.6784    0.2503 C.ar    1  UNL1        0.0096
      6 C          -0.3346    0.5297    0.0448 C.ar    1  UNL1        0.0641
      7 C           1.0479    0.5466   -0.1021 C.ar    1  UNL1        0.1483
      8 C           1.7219   -0.6622   -0.0363 C.ar    1  UNL1        0.0801
      9 C          -2.4704   -0.7598    0.4136 C.3     1  UNL1        0.0714
     10 C          -0.2264   -1.8325    0.3003 C.ar    1  UNL1        0.0341
     11 C           3.2073   -0.7010   -0.1864 C.3     1  UNL1       -0.0188
     12 C          -1.0898    1.7760   -0.0173 C.2     1  UNL1        0.1541
     13 H          -2.7421   -1.6202    1.0363 H       1  UNL1        0.0608
     14 H          -2.9022    0.1151    0.9085 H       1  UNL1        0.0608
     15 H          -0.6798   -2.8068    0.4555 H       1  UNL1        0.0833
     16 H           3.6932   -0.1193    0.6036 H       1  UNL1        0.0294
     17 H           3.5777   -1.7292   -0.1092 H       1  UNL1        0.0294
     18 H           3.5092   -0.3185   -1.1667 H       1  UNL1        0.0294
     19 H          -2.1281    1.7243   -0.3823 H       1  UNL1        0.1083
     20 H           2.6732    1.5603   -0.3863 H       1  UNL1        0.2922
     21 H          -2.5726   -1.6004   -1.3565 H       1  UNL1        0.2098
@<TRIPOS>BOND
     1     1     7    1
     2     1    20    1
     3     2     9    1
     4     2    21    1
     5     3    12    2
     6     4     8   ar
     7     4    10   ar
     8     5     6   ar
     9     5     9    1
    10     5    10   ar
    11     6     7   ar
    12     6    12    1
    13     7     8   ar
    14     8    11    1
    15     9    13    1
    16     9    14    1
    17    10    15    1
    18    11    16    1
    19    11    17    1
    20    11    18    1
    21    12    19    1
