@<TRIPOS>MOLECULE
retinoic_acid
 50 50 0 0 0
SMALL
GASTEIGER

@<TRIPOS>ATOM
      1 O           7.9777    1.3595    1.2054 O.3     1  UNL1       -0.4775
      2 O           8.0170   -0.1977   -0.4568 O.2     1  UNL1       -0.2458
      3 C          -4.8986   -0.8277    0.4507 C.3     1  UNL1       -0.0099
      4 C          -6.2894   -0.1446    0.3408 C.3     1  UNL1       -0.0436
      5 C          -6.2322    1.3333    0.6831 C.3     1  UNL1       -0.0486
      6 C          -3.7885    0.0349   -0.1948 C.2     1  UNL1       -0.0427
      7 C          -5.2935    2.0538   -0.2729 C.3     1  UNL1       -0.0314
      8 C          -3.9888    1.3311   -0.5417 C.2     1  UNL1       -0.0689
      9 C          -5.0439   -2.2043   -0.2429 C.3     1  UNL1       -0.0558
     10 C          -4.5700   -1.0618    1.9431 C.3     1  UNL1       -0.0558
     11 C          -2.5082   -0.6273   -0.3826 C.2     1  UNL1       -0.0579
     12 C          -2.9820    2.2288   -1.2235 C.3     1  UNL1       -0.0432
     13 C          -1.3295   -0.0284   -0.1470 C.2     1  UNL1       -0.0586
     14 C          -0.0052   -0.6280   -0.3137 C.2     1  UNL1       -0.0504
     15 C           0.0543   -2.0586   -0.7984 C.3     1  UNL1       -0.0397
     16 C           1.1560    0.0152   -0.0634 C.2     1  UNL1       -0.0588
     17 C           2.5130   -0.4843   -0.1952 C.2     1  UNL1       -0.0613
     18 C           3.5907    0.2675    0.0895 C.2     1  UNL1       -0.0586
     19 C           4.9979   -0.1363   -0.0146 C.2     1  UNL1       -0.0437
     20 C           5.2798   -1.5465   -0.4657 C.3     1  UNL1       -0.0395
     21 C           5.9399    0.7688    0.3194 C.2     1  UNL1        0.0252
     22 C           7.4034    0.5524    0.2811 C.2     1  UNL1        0.3298
     23 H          -7.0142   -0.6423    0.9976 H       1  UNL1        0.0274
     24 H          -6.6793   -0.2504   -0.6813 H       1  UNL1        0.0274
     25 H          -5.8993    1.4764    1.7174 H       1  UNL1        0.0269
     26 H          -7.2339    1.7733    0.6145 H       1  UNL1        0.0269
     27 H          -5.0866    3.0493    0.1396 H       1  UNL1        0.0310
     28 H          -5.8045    2.2063   -1.2324 H       1  UNL1        0.0310
     29 H          -5.1391   -2.0955   -1.3295 H       1  UNL1        0.0238
     30 H          -4.1945   -2.8651   -0.0389 H       1  UNL1        0.0238
     31 H          -5.9368   -2.7301    0.1166 H       1  UNL1        0.0238
     32 H          -5.3760   -1.6100    2.4443 H       1  UNL1        0.0238
     33 H          -3.6541   -1.6520    2.0641 H       1  UNL1        0.0238
     34 H          -4.4217   -0.1192    2.4811 H       1  UNL1        0.0238
     35 H          -2.5374   -1.6385   -0.7711 H       1  UNL1        0.0621
     36 H          -2.2540    1.6871   -1.8325 H       1  UNL1        0.0275
     37 H          -2.4649    2.8562   -0.4909 H       1  UNL1        0.0275
     38 H          -3.4948    2.8974   -1.9257 H       1  UNL1        0.0275
     39 H          -1.3019    0.9743    0.2737 H       1  UNL1        0.0620
     40 H          -0.4010   -2.1352   -1.7930 H       1  UNL1        0.0278
     41 H           1.0428   -2.5069   -0.8843 H       1  UNL1        0.0278
     42 H          -0.5045   -2.7086   -0.1141 H       1  UNL1        0.0278
     43 H           1.0874    1.0467    0.2847 H       1  UNL1        0.0620
     44 H           2.6649   -1.4955   -0.5452 H       1  UNL1        0.0618
     45 H           3.4233    1.2881    0.4348 H       1  UNL1        0.0620
     46 H           4.9695   -1.6851   -1.5070 H       1  UNL1        0.0278
     47 H           6.3320   -1.8275   -0.3990 H       1  UNL1        0.0278
     48 H           4.7428   -2.2676    0.1611 H       1  UNL1        0.0278
     49 H           5.6419    1.7555    0.6714 H       1  UNL1        0.0691
     50 H           8.9541    1.2649    1.2192 H       1  UNL1        0.2954
@<TRIPOS>BOND
     1     1    22    1
     2     1    50    1
     3     2    22    2
     4     3     4    1
     5     3     6    1
     6     3     9    1
     7     3    10    1
     8     4     5    1
     9     4    23    1
    10     4    24    1
    11     5     7    1
    12     5    25    1
    13     5    26    1
    14     6     8    2
    15     6    11    1
    16     7     8    1
    17     7    27    1
    18     7    28    1
    19     8    12    1
    20     9    29    1
    21     9    30    1
    22     9    31    1
    23    10    32    1
    24    10    33    1
    25    10    34    1
    26    11    13    2
    27    11    35    1
    28    12    36    1
    29    12    37    1
    30    12    38    1
    31    13    14    1
    32    13    39    1
    33    14    15    1
    34    14    16    2
    35    15    40    1
    36    15    41    1
    37    15    42    1
    38    16    17    1
    39    16    43    1
    40    17    18    2
    41    17    44    1
    42    18    19    1
    43    18    45    1
    44    19    20    1
    45    19    21    2
    46    20    46    1
    47    20    47    1
    48    20    48    1
    49    21    22    1
    50    21    49    1
