@<TRIPOS>MOLECULE
retinol_a1
 51 51 0 0 0
SMALL
GASTEIGER

@<TRIPOS>ATOM
      1 O           8.2309    1.0896    1.4385 O.3     1  UNL1       -0.3910
      2 C          -4.5065   -0.7529    0.5327 C.3     1  UNL1       -0.0099
      3 C          -5.8652   -0.0058    0.4386 C.3     1  UNL1       -0.0436
      4 C          -5.7242    1.4800    0.7163 C.3     1  UNL1       -0.0486
      5 C          -3.3782    0.0258   -0.1836 C.2     1  UNL1       -0.0427
      6 C          -4.7844    2.1131   -0.2986 C.3     1  UNL1       -0.0314
      7 C          -3.5265    1.3155   -0.5783 C.2     1  UNL1       -0.0689
      8 C          -4.7424   -2.1475   -0.0974 C.3     1  UNL1       -0.0558
      9 C          -4.1392   -0.9426    2.0223 C.3     1  UNL1       -0.0558
     10 C          -2.1389   -0.7068   -0.3844 C.2     1  UNL1       -0.0579
     11 C          -2.5008    2.1331   -1.3291 C.3     1  UNL1       -0.0432
     12 C          -0.9258   -0.1585   -0.2117 C.2     1  UNL1       -0.0586
     13 C           0.3701   -0.8224   -0.3918 C.2     1  UNL1       -0.0504
     14 C           0.3489   -2.2702   -0.8147 C.3     1  UNL1       -0.0397
     15 C           1.4922   -0.1038   -0.1705 C.2     1  UNL1       -0.0588
     16 C           2.8689   -0.5477   -0.2866 C.2     1  UNL1       -0.0613
     17 C           3.9131    0.2624   -0.0392 C.2     1  UNL1       -0.0591
     18 C           5.3345   -0.0870   -0.1274 C.2     1  UNL1       -0.0522
     19 C           5.6815   -1.4939   -0.5391 C.3     1  UNL1       -0.0399
     20 C           6.2495    0.8629    0.1595 C.2     1  UNL1       -0.0560
     21 C           7.7425    0.7566    0.1444 C.3     1  UNL1        0.0629
     22 H          -6.5908   -0.4394    1.1385 H       1  UNL1        0.0274
     23 H          -6.2944   -0.1331   -0.5652 H       1  UNL1        0.0274
     24 H          -5.3496    1.6479    1.7325 H       1  UNL1        0.0269
     25 H          -6.7048    1.9667    0.6613 H       1  UNL1        0.0269
     26 H          -4.5152    3.1128    0.0646 H       1  UNL1        0.0310
     27 H          -5.3197    2.2521   -1.2469 H       1  UNL1        0.0310
     28 H          -4.8695   -2.0780   -1.1840 H       1  UNL1        0.0238
     29 H          -3.9195   -2.8411    0.1065 H       1  UNL1        0.0238
     30 H          -5.6470   -2.6130    0.3126 H       1  UNL1        0.0238
     31 H          -4.9535   -1.4288    2.5717 H       1  UNL1        0.0238
     32 H          -3.2497   -1.5728    2.1388 H       1  UNL1        0.0238
     33 H          -3.9269    0.0123    2.5152 H       1  UNL1        0.0238
     34 H          -2.2283   -1.7305   -0.7287 H       1  UNL1        0.0621
     35 H          -3.0040    2.7968   -2.0429 H       1  UNL1        0.0275
     36 H          -1.8205    1.5315   -1.9370 H       1  UNL1        0.0275
     37 H          -1.9299    2.7639   -0.6407 H       1  UNL1        0.0275
     38 H          -0.8539    0.8581    0.1698 H       1  UNL1        0.0620
     39 H           1.3408   -2.7136   -0.9219 H       1  UNL1        0.0278
     40 H          -0.1849   -2.8781   -0.0756 H       1  UNL1        0.0278
     41 H          -0.1482   -2.3789   -1.7852 H       1  UNL1        0.0278
     42 H           1.3867    0.9392    0.1316 H       1  UNL1        0.0620
     43 H           3.0428   -1.5740   -0.5854 H       1  UNL1        0.0618
     44 H           3.7032    1.2896    0.2596 H       1  UNL1        0.0620
     45 H           5.2698   -2.2157    0.1751 H       1  UNL1        0.0277
     46 H           6.7554   -1.6833   -0.5901 H       1  UNL1        0.0277
     47 H           5.2783   -1.7140   -1.5339 H       1  UNL1        0.0277
     48 H           5.8939    1.8551    0.4406 H       1  UNL1        0.0597
     49 H           8.1527    1.4805   -0.5665 H       1  UNL1        0.0601
     50 H           8.1286   -0.2276   -0.1227 H       1  UNL1        0.0601
     51 H           7.9099    0.4112    2.0573 H       1  UNL1        0.2098
@<TRIPOS>BOND
     1     1    21    1
     2     1    51    1
     3     2     3    1
     4     2     5    1
     5     2     8    1
     6     2     9    1
     7     3     4    1
     8     3    22    1
     9     3    23    1
    10     4     6    1
    11     4    24    1
    12     4    25    1
    13     5     7    2
    14     5    10    1
    15     6     7    1
    16     6    26    1
    17     6    27    1
    18     7    11    1
    19     8    28    1
    20     8    29    1
    21     8    30    1
    22     9    31    1
    23     9    32    1
    24     9    33    1
    25    10    12    2
    26    10    34    1
    27    11    35    1
    28    11    36    1
    29    11    37    1
    30    12    13    1
    31    12    38    1
    32    13    14    1
    33    13    15    2
    34    14    39    1
    35    14    40    1
    36    14    41    1
    37    15    16    1
    38    15    42    1
    39    16    17    2
    40    16    43    1
    41    17    18    1
    42    17    44    1
    43    18    19    1
    44    18    20    2
    45    19    45    1
    46    19    46    1
    47    19    47    1
    48    20    21    1
    49    20    48    1
    50    21    49    1
    51    21    50    1
