@<TRIPOS>MOLECULE
retinal
 49 49 0 0 0
SMALL
GASTEIGER

@<TRIPOS>ATOM
      1 O           8.7049   -1.1237    0.6412 O.2     1  UNL1       -0.2963
      2 C          -4.5389    0.8655    0.3849 C.3     1  UNL1       -0.0099
      3 C          -5.9341    0.1864    0.3140 C.3     1  UNL1       -0.0436
      4 C          -5.8892   -1.2663    0.7527 C.3     1  UNL1       -0.0486
      5 C          -3.4322   -0.0455   -0.1964 C.2     1  UNL1       -0.0427
      6 C          -4.9519   -2.0545   -0.1496 C.3     1  UNL1       -0.0314
      7 C          -3.6406   -1.3604   -0.4585 C.2     1  UNL1       -0.0689
      8 C          -4.2148    1.1952    1.8602 C.3     1  UNL1       -0.0558
      9 C          -4.6713    2.1943   -0.3987 C.3     1  UNL1       -0.0558
     10 C          -2.1452    0.5928   -0.4196 C.2     1  UNL1       -0.0579
     11 C          -2.6368   -2.3078   -1.0741 C.3     1  UNL1       -0.0432
     12 C          -0.9729    0.0016   -0.1375 C.2     1  UNL1       -0.0586
     13 C           0.3573    0.5792   -0.3330 C.2     1  UNL1       -0.0504
     14 C           0.4314    1.9762   -0.9060 C.3     1  UNL1       -0.0397
     15 C           1.5117   -0.0553   -0.0335 C.2     1  UNL1       -0.0588
     16 C           2.8738    0.4244   -0.1876 C.2     1  UNL1       -0.0613
     17 C           3.9448   -0.3151    0.1525 C.2     1  UNL1       -0.0587
     18 C           5.3470    0.0840    0.0342 C.2     1  UNL1       -0.0474
     19 C           5.6362    1.4589   -0.5235 C.3     1  UNL1       -0.0396
     20 C           6.3923   -0.6896    0.3876 C.2     1  UNL1       -0.0195
     21 C           7.8287   -0.3403    0.2909 C.2     1  UNL1        0.1433
     22 H          -6.3192    0.2275   -0.7146 H       1  UNL1        0.0274
     23 H          -6.6580    0.7312    0.9333 H       1  UNL1        0.0274
     24 H          -6.8938   -1.7028    0.7086 H       1  UNL1        0.0269
     25 H          -5.5615   -1.3434    1.7957 H       1  UNL1        0.0269
     26 H          -5.4596   -2.2658   -1.0997 H       1  UNL1        0.0310
     27 H          -4.7544   -3.0224    0.3279 H       1  UNL1        0.0310
     28 H          -5.0191    1.7805    2.3205 H       1  UNL1        0.0238
     29 H          -4.0754    0.2892    2.4598 H       1  UNL1        0.0238
     30 H          -3.2953    1.7861    1.9462 H       1  UNL1        0.0238
     31 H          -5.5615    2.7493   -0.0783 H       1  UNL1        0.0238
     32 H          -3.8175    2.8608   -0.2355 H       1  UNL1        0.0238
     33 H          -4.7635    2.0145   -1.4761 H       1  UNL1        0.0238
     34 H          -2.1640    1.5769   -0.8729 H       1  UNL1        0.0621
     35 H          -2.1282   -2.8893   -0.2989 H       1  UNL1        0.0275
     36 H          -1.9016   -1.8125   -1.7132 H       1  UNL1        0.0275
     37 H          -3.1508   -3.0176   -1.7337 H       1  UNL1        0.0275
     38 H          -0.9559   -0.9717    0.3477 H       1  UNL1        0.0620
     39 H           1.4240    2.4097   -1.0168 H       1  UNL1        0.0278
     40 H          -0.1241    2.6726   -0.2661 H       1  UNL1        0.0278
     41 H          -0.0199    1.9942   -1.9053 H       1  UNL1        0.0278
     42 H           1.4334   -1.0622    0.3788 H       1  UNL1        0.0620
     43 H           3.0332    1.4134   -0.5929 H       1  UNL1        0.0618
     44 H           3.7867   -1.3130    0.5601 H       1  UNL1        0.0620
     45 H           5.1680    2.2224    0.1097 H       1  UNL1        0.0278
     46 H           5.2145    1.5465   -1.5323 H       1  UNL1        0.0278
     47 H           6.6781    1.7544   -0.6168 H       1  UNL1        0.0278
     48 H           6.2046   -1.6829    0.7907 H       1  UNL1        0.0652
     49 H           8.1059    0.6427   -0.1022 H       1  UNL1        0.1075
@<TRIPOS>BOND
     1     1    21    2
     2     2     3    1
     3     2     5    1
     4     2     8    1
     5     2     9    1
     6     3     4    1
     7     3    22    1
     8     3    23    1
     9     4     6    1
    10     4    24    1
    11     4    25    1
    12     5     7    2
    13     5    10    1
    14     6     7    1
    15     6    26    1
    16     6    27    1
    17     7    11    1
    18     8    28    1
    19     8    29    1
    20     8    30    1
    21     9    31    1
    22     9    32    1
    23     9    33    1
    24    10    12    2
    25    10    34    1
    26    11    35    1
    27    11    36    1
    28    11    37    1
    29    12    13    1
    30    12    38    1
    31    13    14    1
    32    13    15    2
    33    14    39    1
    34    14    40    1
    35    14    41    1
    36    15    16    1
    37    15    42    1
    38    16    17    2
    39    16    43    1
    40    17    18    1
    41    17    44    1
    42    18    19    1
    43    18    20    2
    44    19    45    1
    45    19    46    1
    46    19    47    1
    47    20    21    1
    48    20    48    1
    49    21    49    1
