@<TRIPOS>MOLECULE
riboflavin_b2
 47 49 0 0 0
SMALL
GASTEIGER

@<TRIPOS>ATOM
      1 O           1.5771    1.7039    0.6395 O.3     1  UNL1       -0.3874
      2 O           3.7723   -0.2458   -1.5605 O.3     1  UNL1       -0.3865
      3 O           5.7180    1.2430   -0.2447 O.3     1  UNL1       -0.3869
      4 O           5.5145    0.0984    2.2992 O.3     1  UNL1       -0.3924
      5 O          -4.6591    1.6319    1.0671 O.2     1  UNL1       -0.2653
      6 O          -1.5992    4.6697   -0.5235 O.2     1  UNL1       -0.2446
      7 N          -0.3946    0.1687   -0.6768 N.ar    1  UNL1       -0.3195
      8 N          -2.9293   -0.3520    0.4768 N.ar    1  UNL1       -0.2368
      9 N          -1.0056    2.4739   -0.6013 N.ar    1  UNL1       -0.1733
     10 N          -3.1235    3.1865    0.2663 N.ar    1  UNL1       -0.2717
     11 C           1.9687    0.5944   -0.1701 C.3     1  UNL1        0.1014
     12 C           0.9205    0.4004   -1.2722 C.3     1  UNL1        0.0538
     13 C           3.3813    0.8488   -0.7328 C.3     1  UNL1        0.1106
     14 C           4.4430    1.0385    0.3673 C.3     1  UNL1        0.1065
     15 C          -0.7744   -1.1628   -0.3984 C.ar    1  UNL1        0.0694
     16 C          -1.2594    1.2169   -0.3852 C.ar    1  UNL1        0.1705
     17 C          -2.0408   -1.3962    0.1756 C.ar    1  UNL1        0.0886
     18 C           0.0439   -2.2771   -0.6628 C.ar    1  UNL1       -0.0329
     19 C          -2.5894    0.8705    0.2258 C.ar    1  UNL1        0.1712
     20 C           4.5400   -0.1709    1.2962 C.3     1  UNL1        0.0726
     21 C          -0.3785   -3.5763   -0.3690 C.ar    1  UNL1       -0.0455
     22 C          -2.4555   -2.7049    0.4666 C.ar    1  UNL1       -0.0311
     23 C          -1.6286   -3.7907    0.1958 C.ar    1  UNL1       -0.0454
     24 C          -3.5852    1.9285    0.5726 C.ar    1  UNL1        0.2817
     25 C           0.5333   -4.7204   -0.6716 C.3     1  UNL1       -0.0394
     26 C          -2.1039   -5.1680    0.5210 C.3     1  UNL1       -0.0394
     27 C          -1.8857    3.4912   -0.3009 C.ar    1  UNL1        0.3505
     28 H           1.9720   -0.3016    0.4584 H       1  UNL1        0.0638
     29 H           0.8753    1.3221   -1.8685 H       1  UNL1        0.0519
     30 H           1.2031   -0.3658   -2.0007 H       1  UNL1        0.0519
     31 H           3.3733    1.7451   -1.3654 H       1  UNL1        0.0646
     32 H           4.2237    1.9412    0.9490 H       1  UNL1        0.0643
     33 H           1.0369   -2.1606   -1.0858 H       1  UNL1        0.0641
     34 H           3.6022   -0.3935    1.8094 H       1  UNL1        0.0584
     35 H           4.8737   -1.0631    0.7577 H       1  UNL1        0.0584
     36 H          -3.4369   -2.8635    0.9096 H       1  UNL1        0.0642
     37 H           0.7995    1.4293    1.1539 H       1  UNL1        0.2100
     38 H           4.6643   -0.0534   -1.8967 H       1  UNL1        0.2100
     39 H           6.3691    1.3538    0.4693 H       1  UNL1        0.2100
     40 H           1.4773   -4.3846   -1.1148 H       1  UNL1        0.0278
     41 H           0.7840   -5.2658    0.2441 H       1  UNL1        0.0278
     42 H           0.0677   -5.4054   -1.3876 H       1  UNL1        0.0278
     43 H          -3.1083   -5.1583    0.9586 H       1  UNL1        0.0278
     44 H          -2.1525   -5.7832   -0.3833 H       1  UNL1        0.0278
     45 H          -1.4395   -5.6435    1.2498 H       1  UNL1        0.0278
     46 H          -3.7395    3.9683    0.4709 H       1  UNL1        0.1735
     47 H           5.2118    0.8746    2.8008 H       1  UNL1        0.2095
@<TRIPOS>BOND
     1     1    11    1
     2     1    37    1
     3     2    13    1
     4     2    38    1
     5     3    14    1
     6     3    39    1
     7     4    20    1
     8     4    47    1
     9     5    24    2
    10     6    27    2
    11     7    12    1
    12     7    15   ar
    13     7    16   ar
    14     8    17   ar
    15     8    19   ar
    16     9    16   ar
    17     9    27   ar
    18    10    24   ar
    19    10    27   ar
    20    10    46    1
    21    11    12    1
    22    11    13    1
    23    11    28    1
    24    12    29    1
    25    12    30    1
    26    13    14    1
    27    13    31    1
    28    14    20    1
    29    14    32    1
    30    15    17   ar
    31    15    18   ar
    32    16    19    1
    33    17    22   ar
    34    18    21   ar
    35    18    33    1
    36    19    24   ar
    37    20    34    1
    38    20    35    1
    39    21    23   ar
    40    21    25    1
    41    22    23   ar
    42    22    36    1
    43    23    26    1
    44    25    40    1
    45    25    41    1
    46    25    42    1
    47    26    43    1
    48    26    44    1
    49    26    45    1
