@<TRIPOS>MOLECULE
904
 19 19 0 0 0
SMALL
GASTEIGER

@<TRIPOS>ATOM
      1 O           2.2892    1.3289    0.0015 O.2     1  UNL1       -0.2758
      2 N           1.1479   -0.7341    0.0002 N.am    1  UNL1       -0.2857
      3 C          -0.1984   -0.3677    0.0006 C.ar    1  UNL1        0.0334
      4 C          -0.5543    0.9810   -0.0001 C.ar    1  UNL1       -0.0405
      5 C          -1.1883   -1.3502    0.0008 C.ar    1  UNL1       -0.0405
      6 C          -1.9003    1.3471   -0.0006 C.ar    1  UNL1       -0.0600
      7 C          -2.5344   -0.9842    0.0001 C.ar    1  UNL1       -0.0600
      8 C          -2.8903    0.3645   -0.0006 C.ar    1  UNL1       -0.0616
      9 C           2.2721    0.1023   -0.0009 C.2     1  UNL1        0.2141
     10 C           3.5568   -0.6877   -0.0010 C.3     1  UNL1        0.0125
     11 H           0.1541    1.7975   -0.0005 H       1  UNL1        0.0636
     12 H          -0.9256   -2.4051    0.0011 H       1  UNL1        0.0636
     13 H           1.3250   -1.7365    0.0004 H       1  UNL1        0.1548
     14 H          -2.1789    2.3970   -0.0011 H       1  UNL1        0.0618
     15 H          -3.3053   -1.7491    0.0000 H       1  UNL1        0.0618
     16 H          -3.9383    0.6495   -0.0012 H       1  UNL1        0.0618
     17 H           3.6172   -1.2946    0.9068 H       1  UNL1        0.0323
     18 H           4.4113   -0.0061   -0.0308 H       1  UNL1        0.0323
     19 H           3.5924   -1.3386   -0.8792 H       1  UNL1        0.0323
@<TRIPOS>BOND
     1     1     9    2
     2     2     3    1
     3     2     9   am
     4     2    13    1
     5     3     4   ar
     6     3     5   ar
     7     4     6   ar
     8     4    11    1
     9     5     7   ar
    10     5    12    1
    11     6     8   ar
    12     6    14    1
    13     7     8   ar
    14     7    15    1
    15     8    16    1
    16     9    10    1
    17    10    17    1
    18    10    18    1
    19    10    19    1
