@<TRIPOS>MOLECULE
6211
 13 13 0 0 0
SMALL
GASTEIGER

@<TRIPOS>ATOM
      1 O          -2.3762   -1.2792    0.0014 O.2     1  UNL1       -0.2748
      2 O           2.3768   -1.2780    0.0008 O.2     1  UNL1       -0.2748
      3 O          -0.0007    2.6521   -0.0003 O.2     1  UNL1       -0.2520
      4 N          -1.1730    0.6766   -0.0003 N.am    1  UNL1       -0.2395
      5 N           1.1727    0.6772    0.0008 N.am    1  UNL1       -0.2395
      6 C           0.0004   -1.4689   -0.0027 C.3     1  UNL1        0.1012
      7 C          -1.2895   -0.7002    0.0002 C.2     1  UNL1        0.2292
      8 C           1.2899   -0.6996    0.0003 C.2     1  UNL1        0.2292
      9 C          -0.0004    1.4199   -0.0002 C.2     1  UNL1        0.3122
     10 H           0.0005   -2.1120    0.8848 H       1  UNL1        0.0453
     11 H           0.0006   -2.1050   -0.8951 H       1  UNL1        0.0453
     12 H          -2.0416    1.2042    0.0002 H       1  UNL1        0.1591
     13 H           2.0410    1.2052    0.0019 H       1  UNL1        0.1591
@<TRIPOS>BOND
     1     1     7    2
     2     2     8    2
     3     3     9    2
     4     4     7   am
     5     4     9   am
     6     4    12    1
     7     5     8   am
     8     5     9   am
     9     5    13    1
    10     6     7    1
    11     6     8    1
    12     6    10    1
    13     6    11    1
