@<TRIPOS>MOLECULE
3102
 24 25 0 0 0
SMALL
GASTEIGER

@<TRIPOS>ATOM
      1 O           0.0295   -2.3285   -0.0002 O.2     1  UNL1       -0.2867
      2 C          -1.2788   -0.3897   -0.0003 C.ar    1  UNL1        0.0223
      3 C           1.3050   -0.3680    0.0000 C.ar    1  UNL1        0.0223
      4 C          -0.0038   -1.0889   -0.0002 C.2     1  UNL1        0.1931
      5 C          -1.3098    1.0048    0.0000 C.ar    1  UNL1       -0.0509
      6 C           1.2983    1.0073   -0.0004 C.ar    1  UNL1       -0.0509
      7 C          -2.4710   -1.1137   -0.0001 C.ar    1  UNL1       -0.0509
      8 C           2.4635   -1.1091    0.0004 C.ar    1  UNL1       -0.0509
      9 C          -2.5330    1.6754    0.0003 C.ar    1  UNL1       -0.0611
     10 C           2.5202    1.6802   -0.0004 C.ar    1  UNL1       -0.0611
     11 C          -3.6942   -0.4432    0.0001 C.ar    1  UNL1       -0.0611
     12 C           3.6854   -0.4363    0.0005 C.ar    1  UNL1       -0.0611
     13 C          -3.7251    0.9513    0.0003 C.ar    1  UNL1       -0.0617
     14 C           3.7138    0.9583    0.0001 C.ar    1  UNL1       -0.0617
     15 H          -0.6303    1.6363   -0.5632 H       1  UNL1        0.0625
     16 H           0.6188    1.6258    0.5762 H       1  UNL1        0.0625
     17 H          -2.4747   -2.2005   -0.0017 H       1  UNL1        0.0625
     18 H           2.4669   -2.1945    0.0021 H       1  UNL1        0.0625
     19 H          -2.5653    2.7563   -0.1109 H       1  UNL1        0.0618
     20 H           2.5503    2.7608    0.1133 H       1  UNL1        0.0618
     21 H          -4.6228   -1.0067   -0.0062 H       1  UNL1        0.0618
     22 H           4.6151   -0.9980    0.0073 H       1  UNL1        0.0618
     23 H          -4.6774    1.4729   -0.0259 H       1  UNL1        0.0618
     24 H           4.6650    1.4817    0.0272 H       1  UNL1        0.0618
@<TRIPOS>BOND
     1     1     4    2
     2     2     4    1
     3     2     5   ar
     4     2     7   ar
     5     3     4    1
     6     3     6   ar
     7     3     8   ar
     8     5     9   ar
     9     5    15    1
    10     6    10   ar
    11     6    16    1
    12     7    11   ar
    13     7    17    1
    14     8    12   ar
    15     8    18    1
    16     9    13   ar
    17     9    19    1
    18    10    14   ar
    19    10    20    1
    20    11    13   ar
    21    11    21    1
    22    12    14   ar
    23    12    22    1
    24    13    23    1
    25    14    24    1
