@<TRIPOS>MOLECULE
7168
 26 27 0 0 0
SMALL
GASTEIGER

@<TRIPOS>ATOM
      1 O          -0.2313    1.8373    0.2880 O.2     1  UNL1       -0.2699
      2 N           0.4679   -0.3714   -0.0835 N.am    1  UNL1       -0.2815
      3 C          -1.8780    0.2137    0.0365 C.ar    1  UNL1        0.0370
      4 C           1.8800   -0.2623   -0.0608 C.ar    1  UNL1        0.0337
      5 C          -0.4885    0.6397    0.0847 C.2     1  UNL1        0.2483
      6 C          -2.8683    1.1089   -0.3682 C.ar    1  UNL1       -0.0496
      7 C          -2.2208   -1.0902    0.3946 C.ar    1  UNL1       -0.0496
      8 C           2.4590    0.9774    0.1506 C.ar    1  UNL1       -0.0405
      9 C           2.6493   -1.3977   -0.2499 C.ar    1  UNL1       -0.0405
     10 C          -4.2012    0.7003   -0.4146 C.ar    1  UNL1       -0.0610
     11 C          -3.5536   -1.4987    0.3480 C.ar    1  UNL1       -0.0610
     12 C           3.8495    1.0849    0.1734 C.ar    1  UNL1       -0.0600
     13 C           4.0399   -1.2900   -0.2269 C.ar    1  UNL1       -0.0600
     14 C          -4.5438   -0.6034   -0.0566 C.ar    1  UNL1       -0.0617
     15 C           4.6399   -0.0486   -0.0153 C.ar    1  UNL1       -0.0616
     16 H           0.1405   -1.3120   -0.2863 H       1  UNL1        0.1551
     17 H          -2.6224    2.1277   -0.6564 H       1  UNL1        0.0625
     18 H          -1.4919   -1.8110    0.7529 H       1  UNL1        0.0625
     19 H           1.9183    1.8990    0.3044 H       1  UNL1        0.0636
     20 H           2.1924   -2.3693   -0.4152 H       1  UNL1        0.0636
     21 H          -4.9723    1.3970   -0.7304 H       1  UNL1        0.0618
     22 H          -3.8224   -2.5111    0.6351 H       1  UNL1        0.0618
     23 H           4.3183    2.0509    0.3381 H       1  UNL1        0.0618
     24 H           4.6555   -2.1726   -0.3737 H       1  UNL1        0.0618
     25 H          -5.5819   -0.9210   -0.0911 H       1  UNL1        0.0618
     26 H           5.7226    0.0351    0.0025 H       1  UNL1        0.0618
@<TRIPOS>BOND
     1     1     5    2
     2     2     4    1
     3     2     5   am
     4     2    16    1
     5     3     5    1
     6     3     6   ar
     7     3     7   ar
     8     4     8   ar
     9     4     9   ar
    10     6    10   ar
    11     6    17    1
    12     7    11   ar
    13     7    18    1
    14     8    12   ar
    15     8    19    1
    16     9    13   ar
    17     9    20    1
    18    10    14   ar
    19    10    21    1
    20    11    14   ar
    21    11    22    1
    22    12    15   ar
    23    12    23    1
    24    13    15   ar
    25    13    24    1
    26    14    25    1
    27    15    26    1
