@<TRIPOS>MOLECULE
2331
 16 16 0 0 0
SMALL
GASTEIGER

@<TRIPOS>ATOM
      1 O           2.3803   -1.1311   -0.0087 O.2     1  UNL1       -0.2704
      2 N           2.4284    1.1615    0.0025 N.am    1  UNL1       -0.3253
      3 C           0.3007   -0.0255    0.0025 C.ar    1  UNL1        0.0365
      4 C          -0.3708    1.1971   -0.0012 C.ar    1  UNL1       -0.0496
      5 C          -0.4224   -1.2184    0.0040 C.ar    1  UNL1       -0.0496
      6 C          -1.7653    1.2271   -0.0033 C.ar    1  UNL1       -0.0610
      7 C          -1.8170   -1.1884    0.0017 C.ar    1  UNL1       -0.0610
      8 C          -2.4884    0.0343   -0.0019 C.ar    1  UNL1       -0.0617
      9 C           1.7546   -0.0565    0.0045 C.2     1  UNL1        0.2415
     10 H           0.1247    2.1605   -0.0030 H       1  UNL1        0.0625
     11 H           0.0776   -2.1834    0.0070 H       1  UNL1        0.0625
     12 H          -2.2894    2.1785   -0.0062 H       1  UNL1        0.0618
     13 H          -2.3805   -2.1169    0.0029 H       1  UNL1        0.0618
     14 H          -3.5742    0.0575   -0.0037 H       1  UNL1        0.0618
     15 H           2.0004    2.0781    0.0084 H       1  UNL1        0.1453
     16 H           3.4437    1.1668   -0.0032 H       1  UNL1        0.1453
@<TRIPOS>BOND
     1     1     9    2
     2     2     9   am
     3     2    15    1
     4     2    16    1
     5     3     4   ar
     6     3     5   ar
     7     3     9    1
     8     4     6   ar
     9     4    10    1
    10     5     7   ar
    11     5    11    1
    12     6     8   ar
    13     6    12    1
    14     7     8   ar
    15     7    13    1
    16     8    14    1
