@<TRIPOS>MOLECULE
136721
 10 10 0 0 0
SMALL
GASTEIGER

@<TRIPOS>ATOM
      1 O          -1.7913   -0.0256    0.0001 O.2     1  UNL1       -0.2758
      2 N           0.3307    0.9877    0.0001 N.am    1  UNL1       -0.3148
      3 C           1.5037    0.1292   -0.0001 C.3     1  UNL1        0.0198
      4 C           0.5390   -1.0720    0.0001 C.3     1  UNL1        0.0395
      5 C          -0.5822   -0.0192   -0.0003 C.2     1  UNL1        0.2145
      6 H           2.1148    0.2423    0.8988 H       1  UNL1        0.0467
      7 H           2.1145    0.2423   -0.8991 H       1  UNL1        0.0467
      8 H           0.5633   -1.6933    0.8986 H       1  UNL1        0.0374
      9 H           0.5636   -1.6937   -0.8980 H       1  UNL1        0.0374
     10 H           0.1980    1.9896    0.0006 H       1  UNL1        0.1487
@<TRIPOS>BOND
     1     1     5    2
     2     2     3    1
     3     2     5   am
     4     2    10    1
     5     3     4    1
     6     3     6    1
     7     3     7    1
     8     4     5    1
     9     4     8    1
    10     4     9    1
