@<TRIPOS>MOLECULE
637760
 28 29 0 0 0
SMALL
GASTEIGER

@<TRIPOS>ATOM
      1 O           1.2418   -2.2212    0.4798 O.2     1  UNL1       -0.2873
      2 C           2.4675   -0.2630    0.0706 C.ar    1  UNL1        0.0217
      3 C          -2.5674   -0.2931    0.0599 C.ar    1  UNL1       -0.0249
      4 C           1.2036   -1.0186    0.2441 C.2     1  UNL1        0.1861
      5 C          -1.2597   -0.9130    0.2067 C.2     1  UNL1       -0.0510
      6 C          -0.0755   -0.2711    0.0901 C.2     1  UNL1       -0.0138
      7 C           2.4948    1.0786    0.3962 C.ar    1  UNL1       -0.0509
      8 C           3.5807   -0.9230   -0.4111 C.ar    1  UNL1       -0.0509
      9 C          -2.7030    1.0888    0.1936 C.ar    1  UNL1       -0.0546
     10 C          -3.6858   -1.0803   -0.2144 C.ar    1  UNL1       -0.0546
     11 C           3.6838    1.7895    0.2332 C.ar    1  UNL1       -0.0611
     12 C           4.7698   -0.2120   -0.5739 C.ar    1  UNL1       -0.0611
     13 C          -3.9569    1.6835    0.0531 C.ar    1  UNL1       -0.0612
     14 C          -4.9397   -0.4856   -0.3549 C.ar    1  UNL1       -0.0612
     15 C           4.8212    1.1442   -0.2517 C.ar    1  UNL1       -0.0617
     16 C          -5.0752    0.8963   -0.2212 C.ar    1  UNL1       -0.0617
     17 H          -1.2717   -1.9768    0.4344 H       1  UNL1        0.0625
     18 H          -0.0345    0.7728   -0.1918 H       1  UNL1        0.0656
     19 H           1.6460    1.6088    0.8147 H       1  UNL1        0.0625
     20 H           3.5552   -1.9771   -0.6708 H       1  UNL1        0.0625
     21 H          -1.8656    1.7395    0.4283 H       1  UNL1        0.0623
     22 H          -3.5996   -2.1588   -0.3234 H       1  UNL1        0.0623
     23 H           3.7271    2.8432    0.4928 H       1  UNL1        0.0618
     24 H           5.6555   -0.7141   -0.9521 H       1  UNL1        0.0618
     25 H          -4.0639    2.7588    0.1620 H       1  UNL1        0.0618
     26 H          -5.8107   -1.0982   -0.5685 H       1  UNL1        0.0618
     27 H           5.7475    1.6972   -0.3766 H       1  UNL1        0.0618
     28 H          -6.0517    1.3592   -0.3293 H       1  UNL1        0.0618
@<TRIPOS>BOND
     1     1     4    2
     2     2     4    1
     3     2     7   ar
     4     2     8   ar
     5     3     5    1
     6     3     9   ar
     7     3    10   ar
     8     4     6    1
     9     5     6    2
    10     5    17    1
    11     6    18    1
    12     7    11   ar
    13     7    19    1
    14     8    12   ar
    15     8    20    1
    16     9    13   ar
    17     9    21    1
    18    10    14   ar
    19    10    22    1
    20    11    15   ar
    21    11    23    1
    22    12    15   ar
    23    12    24    1
    24    13    16   ar
    25    13    25    1
    26    14    16   ar
    27    14    26    1
    28    15    27    1
    29    16    28    1
