@<TRIPOS>MOLECULE
10286
 17 18 0 0 0
SMALL
GASTEIGER

@<TRIPOS>ATOM
      1 O           0.6603    1.8389    0.0000 O.2     1  UNL1       -0.4627
      2 O           1.7071   -2.1050    0.0002 O.2     1  UNL1       -0.2871
      3 C          -0.0271   -0.4938    0.0000 C.ar    1  UNL1        0.0639
      4 C          -0.3164    0.8727    0.0000 C.ar    1  UNL1        0.1384
      5 C          -1.0604   -1.4334    0.0000 C.ar    1  UNL1       -0.0474
      6 C           1.3826   -0.9257   -0.0002 C.ar    1  UNL1        0.1925
      7 C          -1.6425    1.3052    0.0001 C.ar    1  UNL1       -0.0186
      8 C          -2.3860   -0.9971   -0.0001 C.ar    1  UNL1       -0.0609
      9 C          -2.6765    0.3684    0.0001 C.ar    1  UNL1       -0.0582
     10 C           2.3911    0.1515    0.0001 C.ar    1  UNL1        0.0207
     11 C           1.9678    1.4181   -0.0001 C.ar    1  UNL1        0.0961
     12 H          -0.8544   -2.5000   -0.0001 H       1  UNL1        0.0626
     13 H          -1.8780    2.3659    0.0002 H       1  UNL1        0.0654
     14 H          -3.1949   -1.7222   -0.0001 H       1  UNL1        0.0618
     15 H          -3.7102    0.7021    0.0001 H       1  UNL1        0.0619
     16 H           3.4420   -0.1075    0.0001 H       1  UNL1        0.0687
     17 H           2.6389    2.2659   -0.0001 H       1  UNL1        0.1031
@<TRIPOS>BOND
     1     1     4   ar
     2     1    11   ar
     3     2     6    2
     4     3     4   ar
     5     3     5   ar
     6     3     6   ar
     7     4     7   ar
     8     5     8   ar
     9     5    12    1
    10     6    10   ar
    11     7     9   ar
    12     7    13    1
    13     8     9   ar
    14     8    14    1
    15     9    15    1
    16    10    11   ar
    17    10    16    1
    18    11    17    1
