@<TRIPOS>MOLECULE
71482479
 20 20 0 0 0
SMALL
GASTEIGER

@<TRIPOS>ATOM
      1 O           1.7486    1.6281   -0.7573 O.3     1  UNL1       -0.3876
      2 O           2.4860   -1.2834   -0.2341 O.3     1  UNL1       -0.3876
      3 O          -2.9419   -0.0208   -0.5969 O.2     1  UNL1       -0.2529
      4 N          -1.1318    1.1199    0.1550 N.am    1  UNL1       -0.2969
      5 N          -1.1734   -1.2548    0.1040 N.am    1  UNL1       -0.2969
      6 C           1.3357    0.7461    0.2890 C.3     1  UNL1        0.0979
      7 C           1.1976   -0.6674   -0.2813 C.3     1  UNL1        0.0979
      8 C           0.0748    1.2982    0.9455 C.3     1  UNL1        0.0416
      9 C           0.2031   -1.5151    0.5017 C.3     1  UNL1        0.0416
     10 C          -1.7987   -0.0506   -0.1257 C.2     1  UNL1        0.2998
     11 H           2.1444    0.7665    1.0304 H       1  UNL1        0.0635
     12 H           0.9160   -0.6228   -1.3409 H       1  UNL1        0.0635
     13 H          -0.0988    0.8235    1.9172 H       1  UNL1        0.0489
     14 H           0.1744    2.3757    1.1180 H       1  UNL1        0.0489
     15 H           0.3810   -2.5801    0.3120 H       1  UNL1        0.0489
     16 H           0.2944   -1.3800    1.5846 H       1  UNL1        0.0489
     17 H          -1.6252    1.9731   -0.0902 H       1  UNL1        0.1503
     18 H          -1.7406   -2.0796   -0.0677 H       1  UNL1        0.1503
     19 H           1.8950    2.5051   -0.3637 H       1  UNL1        0.2100
     20 H           2.4065   -2.1620   -0.6434 H       1  UNL1        0.2100
@<TRIPOS>BOND
     1     1     6    1
     2     1    19    1
     3     2     7    1
     4     2    20    1
     5     3    10    2
     6     4     8    1
     7     4    10   am
     8     4    17    1
     9     5     9    1
    10     5    10   am
    11     5    18    1
    12     6     7    1
    13     6     8    1
    14     6    11    1
    15     7     9    1
    16     7    12    1
    17     8    13    1
    18     8    14    1
    19     9    15    1
    20     9    16    1
