@<TRIPOS>MOLECULE
10680
 27 29 0 0 0
SMALL
GASTEIGER

@<TRIPOS>ATOM
      1 O          -0.1912    0.8759    0.0840 O.2     1  UNL1       -0.4546
      2 O          -1.8774   -2.8170   -0.2590 O.2     1  UNL1       -0.2870
      3 C          -2.1985   -0.4860   -0.0401 C.ar    1  UNL1        0.0640
      4 C           0.5820   -0.2686   -0.0375 C.ar    1  UNL1        0.1392
      5 C          -1.5569    0.7459    0.0762 C.ar    1  UNL1        0.1392
      6 C           2.0366   -0.0154   -0.0125 C.ar    1  UNL1        0.0174
      7 C          -1.3814   -1.7034   -0.1588 C.ar    1  UNL1        0.1931
      8 C           0.0826   -1.5098   -0.1486 C.ar    1  UNL1        0.0287
      9 C          -3.5934   -0.5586   -0.0416 C.ar    1  UNL1       -0.0474
     10 C          -2.3086    1.9152    0.1923 C.ar    1  UNL1       -0.0186
     11 C           2.9076   -0.9749    0.5102 C.ar    1  UNL1       -0.0511
     12 C           2.5493    1.1851   -0.5114 C.ar    1  UNL1       -0.0511
     13 C          -4.3428    0.6127    0.0741 C.ar    1  UNL1       -0.0609
     14 C          -3.7021    1.8470    0.1909 C.ar    1  UNL1       -0.0582
     15 C           4.2815   -0.7357    0.5341 C.ar    1  UNL1       -0.0611
     16 C           3.9233    1.4240   -0.4875 C.ar    1  UNL1       -0.0611
     17 C           4.7894    0.4636    0.0353 C.ar    1  UNL1       -0.0617
     18 H           0.6890   -2.4015   -0.2556 H       1  UNL1        0.0693
     19 H          -4.1096   -1.5103   -0.1311 H       1  UNL1        0.0626
     20 H          -1.8179    2.8804    0.2837 H       1  UNL1        0.0654
     21 H           2.5502   -1.9122    0.9283 H       1  UNL1        0.0625
     22 H           1.8983    1.9475   -0.9321 H       1  UNL1        0.0625
     23 H          -5.4280    0.5639    0.0736 H       1  UNL1        0.0618
     24 H          -4.2895    2.7562    0.2809 H       1  UNL1        0.0619
     25 H           4.9559   -1.4810    0.9456 H       1  UNL1        0.0618
     26 H           4.3194    2.3572   -0.8773 H       1  UNL1        0.0618
     27 H           5.8592    0.6501    0.0546 H       1  UNL1        0.0618
@<TRIPOS>BOND
     1     1     4   ar
     2     1     5   ar
     3     2     7    2
     4     3     5   ar
     5     3     7   ar
     6     3     9   ar
     7     4     6    1
     8     4     8   ar
     9     5    10   ar
    10     6    11   ar
    11     6    12   ar
    12     7     8   ar
    13     8    18    1
    14     9    13   ar
    15     9    19    1
    16    10    14   ar
    17    10    20    1
    18    11    15   ar
    19    11    21    1
    20    12    16   ar
    21    12    22    1
    22    13    14   ar
    23    13    23    1
    24    14    24    1
    25    15    17   ar
    26    15    25    1
    27    16    17   ar
    28    16    26    1
    29    17    27    1
