@<TRIPOS>MOLECULE
70726
 15 15 0 0 0
SMALL
GASTEIGER

@<TRIPOS>ATOM
      1 O          -2.3050   -1.0404    0.0345 O.2     1  UNL1       -0.2754
      2 O           2.3047   -1.0407    0.0345 O.2     1  UNL1       -0.2754
      3 N          -0.0001   -1.0087    0.0624 N.am    1  UNL1       -0.2564
      4 C           0.0002    1.7255    0.3654 C.3     1  UNL1       -0.0365
      5 C          -1.2404    1.0883   -0.2334 C.3     1  UNL1        0.0248
      6 C           1.2407    1.0881   -0.2333 C.3     1  UNL1        0.0248
      7 C          -1.2516   -0.4060   -0.0150 C.2     1  UNL1        0.2192
      8 C           1.2515   -0.4061   -0.0151 C.2     1  UNL1        0.2192
      9 H           0.0003    2.8031    0.1695 H       1  UNL1        0.0274
     10 H           0.0001    1.5877    1.4539 H       1  UNL1        0.0274
     11 H          -1.2944    1.2754   -1.3117 H       1  UNL1        0.0358
     12 H          -2.1348    1.5149    0.2334 H       1  UNL1        0.0358
     13 H           2.1350    1.5145    0.2336 H       1  UNL1        0.0358
     14 H           1.2949    1.2753   -1.3116 H       1  UNL1        0.0358
     15 H          -0.0002   -2.0168    0.1924 H       1  UNL1        0.1575
@<TRIPOS>BOND
     1     1     7    2
     2     2     8    2
     3     3     7   am
     4     3     8   am
     5     3    15    1
     6     4     5    1
     7     4     6    1
     8     4     9    1
     9     4    10    1
    10     5     7    1
    11     5    11    1
    12     5    12    1
    13     6     8    1
    14     6    13    1
    15     6    14    1
