@<TRIPOS>MOLECULE
10006
 11 11 0 0 0
SMALL
GASTEIGER

@<TRIPOS>ATOM
      1 O           2.2856   -0.5902    0.0003 O.2     1  UNL1       -0.2736
      2 O          -2.3005   -0.5437    0.0004 O.2     1  UNL1       -0.2524
      3 N          -0.7012    1.1635    0.0000 N.am    1  UNL1       -0.2905
      4 N          -0.0099   -0.9515   -0.0004 N.am    1  UNL1       -0.2389
      5 C           0.7331    1.2717    0.0000 C.3     1  UNL1        0.0900
      6 C           1.1311   -0.1877    0.0000 C.2     1  UNL1        0.2376
      7 C          -1.1383   -0.1622   -0.0002 C.2     1  UNL1        0.3063
      8 H           1.0646    1.7773    0.9083 H       1  UNL1        0.0558
      9 H           1.0646    1.7773   -0.9083 H       1  UNL1        0.0558
     10 H          -1.3297    1.9607    0.0003 H       1  UNL1        0.1507
     11 H          -0.0208   -1.9649   -0.0004 H       1  UNL1        0.1591
@<TRIPOS>BOND
     1     1     6    2
     2     2     7    2
     3     3     5    1
     4     3     7   am
     5     3    10    1
     6     4     6   am
     7     4     7   am
     8     4    11    1
     9     5     6    1
    10     5     8    1
    11     5     9    1
