@<TRIPOS>MOLECULE
443040
 30 32 0 0 0
SMALL
GASTEIGER

@<TRIPOS>ATOM
      1 BR          6.1160    0.0000   -0.0005 Br      1  UNL1       -0.0503
      2 O          -0.5104    2.3093    0.2313 O.2     1  UNL1       -0.2695
      3 O          -0.5106   -2.3098   -0.2284 O.2     1  UNL1       -0.2695
      4 N          -0.0009   -0.0001    0.0001 N.am    1  UNL1       -0.2029
      5 C          -2.1857    0.6642    0.0467 C.2     1  UNL1        0.0234
      6 C          -2.1857   -0.6640   -0.0477 C.2     1  UNL1        0.0234
      7 C          -3.4051    1.5078    0.1284 C.3     1  UNL1       -0.0223
      8 C          -3.4051   -1.5077   -0.1298 C.3     1  UNL1       -0.0223
      9 C          -4.6528    0.6526    0.4047 C.3     1  UNL1       -0.0486
     10 C          -4.6531   -0.6523   -0.4046 C.3     1  UNL1       -0.0486
     11 C          -0.7943    1.1308    0.0936 C.2     1  UNL1        0.2539
     12 C          -0.7944   -1.1310   -0.0931 C.2     1  UNL1        0.2539
     13 C           1.4316    0.0000    0.0000 C.ar    1  UNL1        0.0446
     14 C           2.1336    1.0924   -0.5156 C.ar    1  UNL1       -0.0388
     15 C           2.1338   -1.0924    0.5155 C.ar    1  UNL1       -0.0388
     16 C           3.5284    1.0925   -0.5157 C.ar    1  UNL1       -0.0460
     17 C           3.5286   -1.0924    0.5154 C.ar    1  UNL1       -0.0460
     18 C           4.2260    0.0001   -0.0003 C.ar    1  UNL1        0.0180
     19 H          -3.3028    2.2607    0.9177 H       1  UNL1        0.0315
     20 H          -3.5311    2.0424   -0.8205 H       1  UNL1        0.0315
     21 H          -3.3030   -2.2599   -0.9198 H       1  UNL1        0.0315
     22 H          -3.5306   -2.0433    0.8186 H       1  UNL1        0.0315
     23 H          -4.6958    0.4082    1.4741 H       1  UNL1        0.0269
     24 H          -5.5531    1.2342    0.1765 H       1  UNL1        0.0269
     25 H          -4.6971   -0.4079   -1.4740 H       1  UNL1        0.0269
     26 H          -5.5533   -1.2340   -0.1756 H       1  UNL1        0.0269
     27 H           1.6243    1.9470   -0.9504 H       1  UNL1        0.0637
     28 H           1.6246   -1.9470    0.9505 H       1  UNL1        0.0637
     29 H           4.0569    1.9489   -0.9267 H       1  UNL1        0.0629
     30 H           4.0573   -1.9486    0.9264 H       1  UNL1        0.0629
@<TRIPOS>BOND
     1     1    18    1
     2     2    11    2
     3     3    12    2
     4     4    11   am
     5     4    12   am
     6     4    13    1
     7     5     6    2
     8     5     7    1
     9     5    11    1
    10     6     8    1
    11     6    12    1
    12     7     9    1
    13     7    19    1
    14     7    20    1
    15     8    10    1
    16     8    21    1
    17     8    22    1
    18     9    10    1
    19     9    23    1
    20     9    24    1
    21    10    25    1
    22    10    26    1
    23    13    14   ar
    24    13    15   ar
    25    14    16   ar
    26    14    27    1
    27    15    17   ar
    28    15    28    1
    29    16    18   ar
    30    16    29    1
    31    17    18   ar
    32    17    30    1
