@<TRIPOS>MOLECULE
53982816
 35 36 0 0 0
SMALL
GASTEIGER

@<TRIPOS>ATOM
      1 O          -2.6281   -1.6810    0.3086 O.3     1  UNL1       -0.4675
      2 O           3.0196    0.2719   -2.2045 O.2     1  UNL1       -0.2758
      3 O          -0.8304   -2.7236   -0.6837 O.2     1  UNL1       -0.2501
      4 N           1.4145   -0.4579   -0.7462 N.am    1  UNL1       -0.3113
      5 C           1.0021   -0.9981    0.5449 C.3     1  UNL1        0.0401
      6 C           1.8138   -0.4132    1.6976 C.3     1  UNL1       -0.0330
      7 C          -0.4915   -0.7791    0.7609 C.3     1  UNL1        0.0996
      8 C           3.2946   -0.5147    1.3669 C.3     1  UNL1       -0.0431
      9 C           3.6013    0.2888    0.1141 C.3     1  UNL1        0.0240
     10 C           2.6746    0.0078   -1.0513 C.2     1  UNL1        0.2133
     11 C          -0.9359    0.6257    0.3779 C.ar    1  UNL1       -0.0319
     12 C          -1.3000   -1.8454    0.0283 C.2     1  UNL1        0.3161
     13 C          -0.8241    1.6681    1.2980 C.ar    1  UNL1       -0.0577
     14 C          -1.4552    0.8703   -0.8932 C.ar    1  UNL1       -0.0577
     15 C          -1.2316    2.9551    0.9471 C.ar    1  UNL1       -0.0615
     16 C          -1.8628    2.1572   -1.2443 C.ar    1  UNL1       -0.0615
     17 C          -1.7510    3.1997   -0.3241 C.ar    1  UNL1       -0.0617
     18 C          -3.5100   -2.6317   -0.2970 C.3     1  UNL1        0.0817
     19 H           1.2307   -2.0711    0.5018 H       1  UNL1        0.0509
     20 H           1.6004   -0.9548    2.6263 H       1  UNL1        0.0283
     21 H           1.5837    0.6409    1.8742 H       1  UNL1        0.0283
     22 H          -0.7231   -0.9499    1.8228 H       1  UNL1        0.0481
     23 H           3.8945   -0.1402    2.2038 H       1  UNL1        0.0270
     24 H           3.5712   -1.5652    1.2148 H       1  UNL1        0.0270
     25 H           0.8065   -0.6412   -1.5387 H       1  UNL1        0.1490
     26 H           4.6294    0.0851   -0.2054 H       1  UNL1        0.0358
     27 H           3.5262    1.3608    0.3328 H       1  UNL1        0.0358
     28 H          -0.4467    1.4923    2.3012 H       1  UNL1        0.0621
     29 H          -1.5417    0.0869   -1.6406 H       1  UNL1        0.0621
     30 H          -1.1500    3.7656    1.6654 H       1  UNL1        0.0618
     31 H          -2.2639    2.3488   -2.2353 H       1  UNL1        0.0618
     32 H          -2.0688    4.2016   -0.5974 H       1  UNL1        0.0618
     33 H          -4.5317   -2.3889    0.0068 H       1  UNL1        0.0661
     34 H          -3.2717   -3.6425    0.0475 H       1  UNL1        0.0661
     35 H          -3.4434   -2.5682   -1.3873 H       1  UNL1        0.0661
@<TRIPOS>BOND
     1     1    12    1
     2     1    18    1
     3     2    10    2
     4     3    12    2
     5     4     5    1
     6     4    10   am
     7     4    25    1
     8     5     6    1
     9     5     7    1
    10     5    19    1
    11     6     8    1
    12     6    20    1
    13     6    21    1
    14     7    11    1
    15     7    12    1
    16     7    22    1
    17     8     9    1
    18     8    23    1
    19     8    24    1
    20     9    10    1
    21     9    26    1
    22     9    27    1
    23    11    13   ar
    24    11    14   ar
    25    13    15   ar
    26    13    28    1
    27    14    16   ar
    28    14    29    1
    29    15    17   ar
    30    15    30    1
    31    16    17   ar
    32    16    31    1
    33    17    32    1
    34    18    33    1
    35    18    34    1
    36    18    35    1
