@<TRIPOS>MOLECULE
73949
 11 11 0 0 0
SMALL
GASTEIGER

@<TRIPOS>ATOM
      1 O          -0.0257   -1.1213   -0.0869 O.3     1  UNL1       -0.4488
      2 O          -2.0059    0.0289    0.0096 O.2     1  UNL1       -0.2265
      3 N           0.0515    1.1137    0.0614 N.am    1  UNL1       -0.2779
      4 C           1.4116    0.7242   -0.1037 C.3     1  UNL1        0.0490
      5 C           1.3515   -0.7656    0.1190 C.3     1  UNL1        0.1096
      6 C          -0.7830    0.0201    0.0007 C.2     1  UNL1        0.4004
      7 H           2.0595    1.2447    0.6052 H       1  UNL1        0.0496
      8 H           1.7125    0.9715   -1.1262 H       1  UNL1        0.0496
      9 H           1.9888   -1.3164   -0.5787 H       1  UNL1        0.0714
     10 H           1.6245   -1.0406    1.1433 H       1  UNL1        0.0714
     11 H          -0.2720    2.0749    0.1044 H       1  UNL1        0.1521
@<TRIPOS>BOND
     1     1     5    1
     2     1     6    1
     3     2     6    2
     4     3     4    1
     5     3     6   am
     6     3    11    1
     7     4     5    1
     8     4     7    1
     9     4     8    1
    10     5     9    1
    11     5    10    1
