@<TRIPOS>MOLECULE
6038
 18 19 0 0 0
SMALL
GASTEIGER

@<TRIPOS>ATOM
      1 O          -3.3368   -0.7550    0.0003 O.2     1  UNL1       -0.2679
      2 N          -1.0632   -1.1195   -0.0003 N.ar    1  UNL1       -0.3221
      3 C           0.2483   -0.6110   -0.0002 C.ar    1  UNL1        0.0492
      4 C           0.4491    0.7744    0.0000 C.ar    1  UNL1       -0.0015
      5 C          -0.7146    1.6574    0.0000 C.ar    1  UNL1       -0.0475
      6 C           1.3345   -1.4880    0.0000 C.ar    1  UNL1       -0.0377
      7 C           1.7525    1.2795   -0.0001 C.ar    1  UNL1       -0.0526
      8 C          -2.1880   -0.3177    0.0000 C.ar    1  UNL1        0.2492
      9 C          -1.9535    1.1522    0.0000 C.ar    1  UNL1        0.0034
     10 C           2.6316   -0.9761    0.0003 C.ar    1  UNL1       -0.0598
     11 C           2.8402    0.4037    0.0000 C.ar    1  UNL1       -0.0611
     12 H          -1.1838   -2.1283   -0.0003 H       1  UNL1        0.1689
     13 H          -0.5564    2.7304    0.0000 H       1  UNL1        0.0626
     14 H           1.1834   -2.5640    0.0000 H       1  UNL1        0.0638
     15 H           1.9351    2.3511   -0.0001 H       1  UNL1        0.0624
     16 H          -2.8227    1.8002    0.0001 H       1  UNL1        0.0672
     17 H           3.4816   -1.6524    0.0004 H       1  UNL1        0.0618
     18 H           3.8524    0.7981    0.0000 H       1  UNL1        0.0618
@<TRIPOS>BOND
     1     1     8    2
     2     2     3   ar
     3     2     8   ar
     4     2    12    1
     5     3     4   ar
     6     3     6   ar
     7     4     5   ar
     8     4     7   ar
     9     5     9   ar
    10     5    13    1
    11     6    10   ar
    12     6    14    1
    13     7    11   ar
    14     7    15    1
    15     8     9   ar
    16     9    16    1
    17    10    11   ar
    18    10    17    1
    19    11    18    1
