@<TRIPOS>MOLECULE
135408753
 17 18 0 0 0
SMALL
GASTEIGER

@<TRIPOS>ATOM
      1 O           1.6923   -2.1175    0.0019 O.2     1  UNL1       -0.2672
      2 N           2.3099    0.1068   -0.0011 N.ar    1  UNL1       -0.3129
      3 N           0.7222    1.8598    0.0005 N.ar    1  UNL1       -0.2372
      4 C          -0.0222   -0.4893   -0.0007 C.ar    1  UNL1        0.0647
      5 C          -0.2972    0.8879   -0.0001 C.ar    1  UNL1        0.0778
      6 C           1.3913   -0.9296   -0.0002 C.ar    1  UNL1        0.2590
      7 C          -1.0559   -1.4301   -0.0011 C.ar    1  UNL1       -0.0474
      8 C          -1.6323    1.3056    0.0006 C.ar    1  UNL1       -0.0355
      9 C          -2.3802   -0.9949   -0.0003 C.ar    1  UNL1       -0.0609
     10 C          -2.6684    0.3694    0.0005 C.ar    1  UNL1       -0.0597
     11 C           1.9404    1.4319   -0.0001 C.ar    1  UNL1        0.0966
     12 H          -0.8500   -2.4966   -0.0016 H       1  UNL1        0.0626
     13 H          -1.8747    2.3657    0.0012 H       1  UNL1        0.0639
     14 H          -3.1893   -1.7197   -0.0003 H       1  UNL1        0.0618
     15 H           3.2987   -0.1260   -0.0012 H       1  UNL1        0.1698
     16 H          -3.7014    0.7051    0.0011 H       1  UNL1        0.0618
     17 H           2.7961    2.1239    0.0001 H       1  UNL1        0.1028
@<TRIPOS>BOND
     1     1     6    2
     2     2     6   ar
     3     2    11   ar
     4     2    15    1
     5     3     5   ar
     6     3    11   ar
     7     4     5   ar
     8     4     6   ar
     9     4     7   ar
    10     5     8   ar
    11     7     9   ar
    12     7    12    1
    13     8    10   ar
    14     8    13    1
    15     9    10   ar
    16     9    14    1
    17    10    16    1
    18    11    17    1
