@<TRIPOS>MOLECULE
11439
 12 12 0 0 0
SMALL
GASTEIGER

@<TRIPOS>ATOM
      1 O           2.2996   -0.6044   -0.0003 O.2     1  UNL1       -0.2754
      2 O          -2.2997   -0.6043    0.0005 O.2     1  UNL1       -0.2754
      3 N          -0.0001   -0.9350   -0.0001 N.am    1  UNL1       -0.2564
      4 C           0.7616    1.2610    0.0014 C.3     1  UNL1        0.0326
      5 C          -0.7615    1.2610   -0.0014 C.3     1  UNL1        0.0326
      6 C           1.1504   -0.1892   -0.0002 C.2     1  UNL1        0.2196
      7 C          -1.1503   -0.1892    0.0001 C.2     1  UNL1        0.2196
      8 H           1.1585    1.7496    0.8960 H       1  UNL1        0.0363
      9 H           1.1621    1.7532   -0.8896 H       1  UNL1        0.0363
     10 H          -1.1584    1.7498   -0.8960 H       1  UNL1        0.0363
     11 H          -1.1619    1.7530    0.8897 H       1  UNL1        0.0363
     12 H          -0.0001   -1.9491    0.0000 H       1  UNL1        0.1575
@<TRIPOS>BOND
     1     1     6    2
     2     2     7    2
     3     3     6   am
     4     3     7   am
     5     3    12    1
     6     4     5    1
     7     4     6    1
     8     4     8    1
     9     4     9    1
    10     5     7    1
    11     5    10    1
    12     5    11    1
