@<TRIPOS>MOLECULE
2723790
 8 7 0 0 0
SMALL
GASTEIGER

@<TRIPOS>ATOM
      1 S           1.6194   -0.0001    0.0000 S.2     1  UNL1       -0.0193
      2 N          -0.7859   -1.1533    0.0000 N.am    1  UNL1       -0.3408
      3 N          -0.7858    1.1534    0.0000 N.am    1  UNL1       -0.3408
      4 C          -0.0476    0.0000   -0.0001 C.2     1  UNL1        0.1250
      5 H          -1.8003   -1.1349    0.0000 H       1  UNL1        0.1440
      6 H          -0.3409   -2.0650    0.0001 H       1  UNL1        0.1440
      7 H          -1.8001    1.1351    0.0000 H       1  UNL1        0.1440
      8 H          -0.3406    2.0650    0.0001 H       1  UNL1        0.1440
@<TRIPOS>BOND
     1     1     4    2
     2     2     4    1
     3     2     5    1
     4     2     6    1
     5     3     4    1
     6     3     7    1
     7     3     8    1
