@<TRIPOS>MOLECULE
1274030
 11 11 0 0 0
SMALL
GASTEIGER

@<TRIPOS>ATOM
      1 S           2.6700    0.5282   -0.0002 S.2     1  UNL1       -0.0185
      2 O          -2.3102    0.6850    0.0000 O.2     1  UNL1       -0.2737
      3 N           0.5906   -1.2126    0.0003 N.am    1  UNL1       -0.3177
      4 N           0.0007    0.9368    0.0000 N.am    1  UNL1       -0.2665
      5 C          -0.8480   -1.2523   -0.0003 C.3     1  UNL1        0.0876
      6 C          -1.1762    0.2277    0.0001 C.2     1  UNL1        0.2356
      7 C           1.0731    0.0872    0.0001 C.2     1  UNL1        0.1370
      8 H          -1.2038   -1.7414    0.9078 H       1  UNL1        0.0558
      9 H          -1.2031   -1.7406   -0.9092 H       1  UNL1        0.0558
     10 H           1.1835   -2.0365    0.0002 H       1  UNL1        0.1482
     11 H           0.0645    1.9483    0.0000 H       1  UNL1        0.1565
@<TRIPOS>BOND
     1     1     7    2
     2     2     6    2
     3     3     5    1
     4     3     7    1
     5     3    10    1
     6     4     6   am
     7     4     7    1
     8     4    11    1
     9     5     6    1
    10     5     8    1
    11     5     9    1
