@<TRIPOS>MOLECULE
1176
 8 7 0 0 0
SMALL
GASTEIGER

@<TRIPOS>ATOM
      1 O          -1.3042   -0.0008    0.0001 O.2     1  UNL1       -0.2533
      2 N           0.6903   -1.1479    0.0001 N.am    1  UNL1       -0.3135
      3 N           0.6888    1.1489    0.0001 N.am    1  UNL1       -0.3135
      4 C          -0.0749   -0.0001   -0.0003 C.2     1  UNL1        0.2945
      5 H           1.7041   -1.1111   -0.0002 H       1  UNL1        0.1465
      6 H           0.2605   -2.0669    0.0001 H       1  UNL1        0.1465
      7 H           0.2578    2.0672    0.0002 H       1  UNL1        0.1465
      8 H           1.7026    1.1134    0.0000 H       1  UNL1        0.1465
@<TRIPOS>BOND
     1     1     4    2
     2     2     4   am
     3     2     5    1
     4     2     6    1
     5     3     4   am
     6     3     7    1
     7     3     8    1
