@<TRIPOS>MOLECULE
aldosterone
 54 57 0 0 0
SMALL
GASTEIGER

@<TRIPOS>ATOM
      1 O          -0.0540    1.5058   -1.8728 O.3     1  UNL1       -0.3914
      2 O          -1.8662   -1.0908   -2.0629 O.2     1  UNL1       -0.3004
      3 O          -5.0872   -0.3706   -0.2283 O.2     1  UNL1       -0.2946
      4 O           5.8152    0.8319    1.7808 O.2     1  UNL1       -0.2927
      5 O          -5.9858    2.0575    0.4902 O.3     1  UNL1       -0.3875
      6 C          -0.8783   -1.0663    0.5933 C.3     1  UNL1       -0.0250
      7 C           0.4238   -1.0941   -0.2181 C.3     1  UNL1       -0.0311
      8 C          -1.8634    0.0008    0.0987 C.3     1  UNL1        0.0409
      9 C           1.1195    0.3111   -0.0830 C.3     1  UNL1       -0.0027
     10 C           2.5327    0.3282   -0.7829 C.3     1  UNL1       -0.0049
     11 C           0.1531    1.4705   -0.4659 C.3     1  UNL1        0.0600
     12 C          -1.2167    1.3839    0.2491 C.3     1  UNL1       -0.0135
     13 C          -3.0632   -0.2739    1.0240 C.3     1  UNL1        0.0322
     14 C          -1.7308   -2.3279    0.6823 C.3     1  UNL1       -0.0484
     15 C           1.3383   -2.2410    0.2593 C.3     1  UNL1       -0.0459
     16 C          -3.1014   -1.8123    1.1532 C.3     1  UNL1       -0.0422
     17 C           3.3199   -0.8217   -0.1415 C.2     1  UNL1       -0.0600
     18 C           2.7361   -2.1948   -0.3563 C.3     1  UNL1       -0.0305
     19 C           3.2952    1.6692   -0.5886 C.3     1  UNL1       -0.0366
     20 C          -2.2900   -0.1901   -1.3463 C.2     1  UNL1        0.1274
     21 C           2.4609    0.1126   -2.3161 C.3     1  UNL1       -0.0555
     22 C          -4.3665    0.2767    0.5298 C.2     1  UNL1        0.1624
     23 C           3.8734    1.8441    0.8038 C.3     1  UNL1        0.0107
     24 C           4.3778   -0.6613    0.6705 C.2     1  UNL1       -0.0194
     25 C           4.7936    0.6905    1.1126 C.2     1  UNL1        0.1561
     26 C          -4.7362    1.6622    1.0150 C.3     1  UNL1        0.1025
     27 H          -0.5978   -0.8195    1.6313 H       1  UNL1        0.0313
     28 H           0.2223   -1.2872   -1.2723 H       1  UNL1        0.0308
     29 H           1.3056    0.4470    0.9947 H       1  UNL1        0.0337
     30 H           0.6063    2.4273   -0.1862 H       1  UNL1        0.0596
     31 H          -1.0698    1.6099    1.3129 H       1  UNL1        0.0300
     32 H          -1.8791    2.1560   -0.1590 H       1  UNL1        0.0300
     33 H          -2.8764    0.1374    2.0253 H       1  UNL1        0.0388
     34 H          -1.3171   -3.0511    1.3928 H       1  UNL1        0.0268
     35 H          -1.8216   -2.8365   -0.2829 H       1  UNL1        0.0268
     36 H           0.8791   -3.2078    0.0203 H       1  UNL1        0.0271
     37 H           1.4313   -2.2020    1.3532 H       1  UNL1        0.0271
     38 H          -3.8960   -2.2948    0.5750 H       1  UNL1        0.0272
     39 H          -3.2672   -2.0874    2.2018 H       1  UNL1        0.0272
     40 H           2.6976   -2.4366   -1.4238 H       1  UNL1        0.0310
     41 H           3.3548   -2.9724    0.1082 H       1  UNL1        0.0310
     42 H           2.6635    2.5274   -0.8391 H       1  UNL1        0.0278
     43 H           4.1349    1.7103   -1.2989 H       1  UNL1        0.0278
     44 H          -2.9956    0.5559   -1.7513 H       1  UNL1        0.1032
     45 H           2.1323    1.0184   -2.8364 H       1  UNL1        0.0238
     46 H           3.4506   -0.1347   -2.7213 H       1  UNL1        0.0238
     47 H           1.7867   -0.6953   -2.6112 H       1  UNL1        0.0238
     48 H           3.0944    1.8964    1.5704 H       1  UNL1        0.0345
     49 H           4.4543    2.7722    0.8408 H       1  UNL1        0.0345
     50 H           4.8976   -1.5038    1.1137 H       1  UNL1        0.0652
     51 H          -0.6133    2.2762   -2.0703 H       1  UNL1        0.2098
     52 H          -3.9864    2.3813    0.6817 H       1  UNL1        0.0636
     53 H          -4.7923    1.6691    2.1071 H       1  UNL1        0.0636
     54 H          -6.6604    1.4637    0.8617 H       1  UNL1        0.2100
@<TRIPOS>BOND
     1     1    11    1
     2     1    51    1
     3     2    20    2
     4     3    22    2
     5     4    25    2
     6     5    26    1
     7     5    54    1
     8     6     7    1
     9     6     8    1
    10     6    14    1
    11     6    27    1
    12     7     9    1
    13     7    15    1
    14     7    28    1
    15     8    12    1
    16     8    13    1
    17     8    20    1
    18     9    10    1
    19     9    11    1
    20     9    29    1
    21    10    17    1
    22    10    19    1
    23    10    21    1
    24    11    12    1
    25    11    30    1
    26    12    31    1
    27    12    32    1
    28    13    16    1
    29    13    22    1
    30    13    33    1
    31    14    16    1
    32    14    34    1
    33    14    35    1
    34    15    18    1
    35    15    36    1
    36    15    37    1
    37    16    38    1
    38    16    39    1
    39    17    18    1
    40    17    24    2
    41    18    40    1
    42    18    41    1
    43    19    23    1
    44    19    42    1
    45    19    43    1
    46    20    44    1
    47    21    45    1
    48    21    46    1
    49    21    47    1
    50    22    26    1
    51    23    25    1
    52    23    48    1
    53    23    49    1
    54    24    25    1
    55    24    50    1
    56    26    52    1
    57    26    53    1
