@<TRIPOS>MOLECULE
beta_sitosterol
 80 83 0 0 0
SMALL
GASTEIGER

@<TRIPOS>ATOM
      1 O           8.4283    0.6445   -0.1446 O.3     1  UNL1       -0.3915
      2 C          -0.2872    0.0123    0.1257 C.3     1  UNL1       -0.0259
      3 C           0.6661   -1.1090    0.5847 C.3     1  UNL1       -0.0320
      4 C           2.0573   -1.0191   -0.0507 C.3     1  UNL1       -0.0307
      5 C           2.6946    0.3603    0.2868 C.3     1  UNL1       -0.0285
      6 C          -1.5629   -0.4188    0.8897 C.3     1  UNL1       -0.0328
      7 C           0.3166    1.3472    0.5839 C.3     1  UNL1       -0.0468
      8 C           4.1197    0.5180   -0.3802 C.3     1  UNL1       -0.0078
      9 C          -0.1508   -2.3825    0.3886 C.3     1  UNL1       -0.0492
     10 C           1.7320    1.5493    0.0157 C.3     1  UNL1       -0.0486
     11 C          -1.5947   -1.9550    0.7117 C.3     1  UNL1       -0.0492
     12 C           2.9596   -2.1558    0.4526 C.3     1  UNL1       -0.0311
     13 C          -2.8643    0.2524    0.4751 C.3     1  UNL1       -0.0405
     14 C          -0.5351    0.0425   -1.4030 C.3     1  UNL1       -0.0590
     15 C           4.9489   -0.7622   -0.2058 C.2     1  UNL1       -0.0648
     16 C           4.8561    1.7012    0.3164 C.3     1  UNL1       -0.0413
     17 C           4.4124   -1.9334    0.1786 C.2     1  UNL1       -0.0839
     18 C           4.0026    0.8086   -1.8959 C.3     1  UNL1       -0.0556
     19 C           6.4322   -0.6661   -0.4787 C.3     1  UNL1       -0.0051
     20 C          -4.0376   -0.3133    1.3029 C.3     1  UNL1       -0.0499
     21 C           6.3411    1.8086   -0.0274 C.3     1  UNL1       -0.0258
     22 C           7.0718    0.5030    0.2650 C.3     1  UNL1        0.0590
     23 C          -2.7406    1.7731    0.6174 C.3     1  UNL1       -0.0621
     24 C          -5.4119    0.3345    1.0658 C.3     1  UNL1       -0.0497
     25 C          -6.0130    0.1702   -0.3544 C.3     1  UNL1       -0.0389
     26 C          -7.3512    0.9571   -0.5286 C.3     1  UNL1       -0.0439
     27 C          -6.1390   -1.3295   -0.7206 C.3     1  UNL1       -0.0528
     28 C          -7.1854    2.4548   -0.2412 C.3     1  UNL1       -0.0624
     29 C          -8.5123    0.4009    0.3000 C.3     1  UNL1       -0.0624
     30 C          -6.6532   -1.5939   -2.1295 C.3     1  UNL1       -0.0650
     31 H           0.8136   -1.0087    1.6735 H       1  UNL1        0.0309
     32 H           1.9672   -1.1253   -1.1375 H       1  UNL1        0.0309
     33 H           2.8515    0.3581    1.3780 H       1  UNL1        0.0312
     34 H          -1.4036   -0.2228    1.9617 H       1  UNL1        0.0309
     35 H           0.3699    1.3832    1.6796 H       1  UNL1        0.0271
     36 H          -0.2615    2.2158    0.2718 H       1  UNL1        0.0271
     37 H           0.1827   -3.1891    1.0494 H       1  UNL1        0.0268
     38 H          -0.0823   -2.7486   -0.6419 H       1  UNL1        0.0268
     39 H           1.6465    1.7370   -1.0586 H       1  UNL1        0.0268
     40 H           2.1451    2.4647    0.4545 H       1  UNL1        0.0268
     41 H          -2.2573   -2.2670   -0.1037 H       1  UNL1        0.0268
     42 H          -1.9450   -2.4429    1.6282 H       1  UNL1        0.0268
     43 H           2.6516   -3.0945   -0.0237 H       1  UNL1        0.0310
     44 H           2.8391   -2.2953    1.5342 H       1  UNL1        0.0310
     45 H          -3.0802    0.0298   -0.5765 H       1  UNL1        0.0301
     46 H          -1.1517    0.8977   -1.6956 H       1  UNL1        0.0235
     47 H           0.3921    0.1241   -1.9767 H       1  UNL1        0.0235
     48 H          -1.0434   -0.8588   -1.7605 H       1  UNL1        0.0235
     49 H           4.7706    1.5960    1.4065 H       1  UNL1        0.0274
     50 H           4.3763    2.6533    0.0602 H       1  UNL1        0.0274
     51 H           5.0548   -2.8015    0.3055 H       1  UNL1        0.0572
     52 H           3.3961    0.0550   -2.4087 H       1  UNL1        0.0238
     53 H           3.5533    1.7885   -2.0865 H       1  UNL1        0.0238
     54 H           4.9777    0.8208   -2.3943 H       1  UNL1        0.0238
     55 H           6.9544   -1.5905   -0.1999 H       1  UNL1        0.0335
     56 H           6.6032   -0.5614   -1.5576 H       1  UNL1        0.0335
     57 H          -4.1226   -1.3958    1.1687 H       1  UNL1        0.0268
     58 H          -3.8024   -0.1748    2.3677 H       1  UNL1        0.0268
     59 H           6.4750    2.0909   -1.0790 H       1  UNL1        0.0290
     60 H           6.7975    2.6215    0.5509 H       1  UNL1        0.0290
     61 H           7.0668    0.3133    1.3455 H       1  UNL1        0.0596
     62 H          -2.1696    2.2064   -0.2044 H       1  UNL1        0.0233
     63 H          -2.3016    2.0625    1.5773 H       1  UNL1        0.0233
     64 H          -3.7088    2.2738    0.5416 H       1  UNL1        0.0233
     65 H          -5.3698    1.3861    1.3574 H       1  UNL1        0.0268
     66 H          -6.1020   -0.1285    1.7837 H       1  UNL1        0.0268
     67 H          -5.3012    0.6155   -1.0628 H       1  UNL1        0.0303
     68 H           8.8822   -0.1928    0.0515 H       1  UNL1        0.2098
     69 H          -7.6409    0.8845   -1.5847 H       1  UNL1        0.0298
     70 H          -5.1513   -1.7996   -0.6633 H       1  UNL1        0.0265
     71 H          -6.7719   -1.8528    0.0049 H       1  UNL1        0.0265
     72 H          -6.3166    2.8620   -0.7684 H       1  UNL1        0.0232
     73 H          -7.0729    2.6604    0.8277 H       1  UNL1        0.0232
     74 H          -8.0683    3.0059   -0.5842 H       1  UNL1        0.0232
     75 H          -9.4262    0.9750    0.1096 H       1  UNL1        0.0232
     76 H          -8.3075    0.4563    1.3735 H       1  UNL1        0.0232
     77 H          -8.7293   -0.6401    0.0453 H       1  UNL1        0.0232
     78 H          -7.7023   -1.3048   -2.2378 H       1  UNL1        0.0230
     79 H          -6.5830   -2.6622   -2.3593 H       1  UNL1        0.0230
     80 H          -6.0620   -1.0488   -2.8719 H       1  UNL1        0.0230
@<TRIPOS>BOND
     1     1    22    1
     2     1    68    1
     3     2     3    1
     4     2     6    1
     5     2     7    1
     6     2    14    1
     7     3     4    1
     8     3     9    1
     9     3    31    1
    10     4     5    1
    11     4    12    1
    12     4    32    1
    13     5     8    1
    14     5    10    1
    15     5    33    1
    16     6    11    1
    17     6    13    1
    18     6    34    1
    19     7    10    1
    20     7    35    1
    21     7    36    1
    22     8    15    1
    23     8    16    1
    24     8    18    1
    25     9    11    1
    26     9    37    1
    27     9    38    1
    28    10    39    1
    29    10    40    1
    30    11    41    1
    31    11    42    1
    32    12    17    1
    33    12    43    1
    34    12    44    1
    35    13    20    1
    36    13    23    1
    37    13    45    1
    38    14    46    1
    39    14    47    1
    40    14    48    1
    41    15    17    2
    42    15    19    1
    43    16    21    1
    44    16    49    1
    45    16    50    1
    46    17    51    1
    47    18    52    1
    48    18    53    1
    49    18    54    1
    50    19    22    1
    51    19    55    1
    52    19    56    1
    53    20    24    1
    54    20    57    1
    55    20    58    1
    56    21    22    1
    57    21    59    1
    58    21    60    1
    59    22    61    1
    60    23    62    1
    61    23    63    1
    62    23    64    1
    63    24    25    1
    64    24    65    1
    65    24    66    1
    66    25    26    1
    67    25    27    1
    68    25    67    1
    69    26    28    1
    70    26    29    1
    71    26    69    1
    72    27    30    1
    73    27    70    1
    74    27    71    1
    75    28    72    1
    76    28    73    1
    77    28    74    1
    78    29    75    1
    79    29    76    1
    80    29    77    1
    81    30    78    1
    82    30    79    1
    83    30    80    1
