@<TRIPOS>MOLECULE
calcitriol
 74 76 0 0 0
SMALL
GASTEIGER

@<TRIPOS>ATOM
      1 O           8.5802    1.9693    0.3112 O.3     1  UNL1       -0.3891
      2 O          -8.3492   -0.6615    0.3249 O.3     1  UNL1       -0.3914
      3 O          -5.2374    1.0590   -2.1172 O.3     1  UNL1       -0.3871
      4 C           0.9694   -1.1350   -0.3477 C.3     1  UNL1       -0.0225
      5 C           2.3210   -0.3907   -0.4735 C.3     1  UNL1       -0.0325
      6 C           0.2252   -0.1553    0.5931 C.3     1  UNL1       -0.0139
      7 C           1.9175    1.0959   -0.6069 C.3     1  UNL1       -0.0489
      8 C           0.4896    1.2113   -0.0419 C.3     1  UNL1       -0.0457
      9 C           1.0621   -2.5069    0.3505 C.3     1  UNL1       -0.0465
     10 C           3.2498   -0.8550   -1.5861 C.3     1  UNL1       -0.0405
     11 C          -1.1626   -0.6449    0.9066 C.2     1  UNL1       -0.0659
     12 C           0.2825   -1.2990   -1.7279 C.3     1  UNL1       -0.0588
     13 C          -0.3273   -3.0399    0.7450 C.3     1  UNL1       -0.0488
     14 C          -1.1671   -2.0233    1.5355 C.3     1  UNL1       -0.0312
     15 C           4.5436   -0.0180   -1.6752 C.3     1  UNL1       -0.0501
     16 C           3.5515   -2.3498   -1.4529 C.3     1  UNL1       -0.0621
     17 C          -2.2919    0.0386    0.6755 C.2     1  UNL1       -0.0620
     18 C           5.3896    0.0171   -0.3959 C.3     1  UNL1       -0.0502
     19 C           6.6192    0.9139   -0.5799 C.3     1  UNL1       -0.0245
     20 C          -3.6025   -0.4674    0.9998 C.2     1  UNL1       -0.0582
     21 C           7.5105    1.0829    0.6676 C.3     1  UNL1        0.0605
     22 C          -4.7341    0.2167    0.7685 C.2     1  UNL1       -0.0399
     23 C          -6.0915   -0.3615    1.0813 C.3     1  UNL1       -0.0011
     24 C           6.7647    1.7446    1.8269 C.3     1  UNL1       -0.0363
     25 C           8.1362   -0.2367    1.1241 C.3     1  UNL1       -0.0363
     26 C          -4.7496    1.5468    0.1631 C.2     1  UNL1       -0.0229
     27 C          -7.0558   -0.2452   -0.1015 C.3     1  UNL1        0.0619
     28 C          -5.7364    1.7403   -0.9652 C.3     1  UNL1        0.0822
     29 C          -7.1250    1.1990   -0.6101 C.3     1  UNL1        0.0037
     30 C          -3.9821    2.5548    0.6085 C.2     1  UNL1       -0.0928
     31 H           2.8392   -0.5032    0.4892 H       1  UNL1        0.0309
     32 H           0.7488   -0.1347    1.5640 H       1  UNL1        0.0351
     33 H           2.6089    1.7348   -0.0464 H       1  UNL1        0.0268
     34 H           1.9243    1.4379   -1.6481 H       1  UNL1        0.0268
     35 H           0.4116    2.0224    0.6897 H       1  UNL1        0.0271
     36 H          -0.2093    1.4331   -0.8559 H       1  UNL1        0.0271
     37 H           1.5186   -3.2754   -0.2730 H       1  UNL1        0.0271
     38 H           1.6758   -2.4271    1.2570 H       1  UNL1        0.0271
     39 H           2.7543   -0.7183   -2.5565 H       1  UNL1        0.0301
     40 H          -0.7714   -1.5790   -1.6336 H       1  UNL1        0.0235
     41 H           0.7593   -2.0795   -2.3281 H       1  UNL1        0.0235
     42 H           0.3077   -0.3772   -2.3180 H       1  UNL1        0.0235
     43 H          -0.8766   -3.3407   -0.1555 H       1  UNL1        0.0268
     44 H          -0.2040   -3.9491    1.3458 H       1  UNL1        0.0268
     45 H          -0.7318   -1.9266    2.5397 H       1  UNL1        0.0310
     46 H          -2.1443   -2.4792    1.6860 H       1  UNL1        0.0310
     47 H           5.1594   -0.4046   -2.4979 H       1  UNL1        0.0268
     48 H           4.2867    1.0102   -1.9593 H       1  UNL1        0.0268
     49 H           2.7473   -2.9681   -1.8553 H       1  UNL1        0.0233
     50 H           4.4342   -2.6113   -2.0492 H       1  UNL1        0.0233
     51 H           3.7716   -2.6390   -0.4206 H       1  UNL1        0.0233
     52 H          -2.1843    0.9865    0.1689 H       1  UNL1        0.0617
     53 H           4.7917    0.4036    0.4328 H       1  UNL1        0.0266
     54 H           5.7017   -0.9993   -0.1352 H       1  UNL1        0.0266
     55 H           7.2323    0.5241   -1.4039 H       1  UNL1        0.0293
     56 H           6.2957    1.9091   -0.9150 H       1  UNL1        0.0293
     57 H          -3.7206   -1.4419    1.4537 H       1  UNL1        0.0620
     58 H          -6.5116    0.1610    1.9520 H       1  UNL1        0.0338
     59 H          -6.0251   -1.4147    1.3832 H       1  UNL1        0.0338
     60 H           5.9746    1.1043    2.2304 H       1  UNL1        0.0257
     61 H           7.4509    1.9870    2.6470 H       1  UNL1        0.0257
     62 H           6.3168    2.6935    1.5104 H       1  UNL1        0.0257
     63 H           8.8558   -0.0700    1.9341 H       1  UNL1        0.0257
     64 H           7.3844   -0.9472    1.4806 H       1  UNL1        0.0257
     65 H           8.6961   -0.7030    0.3055 H       1  UNL1        0.0257
     66 H          -6.7373   -0.9173   -0.9076 H       1  UNL1        0.0597
     67 H          -5.8343    2.7984   -1.2353 H       1  UNL1        0.0644
     68 H          -7.7798    1.2325   -1.4899 H       1  UNL1        0.0318
     69 H          -7.5967    1.8349    0.1507 H       1  UNL1        0.0318
     70 H           9.1593    2.0740    1.0854 H       1  UNL1        0.2101
     71 H          -4.0311    3.5350    0.1440 H       1  UNL1        0.0538
     72 H          -3.3243    2.4634    1.4667 H       1  UNL1        0.0538
     73 H          -8.9484   -0.5803   -0.4366 H       1  UNL1        0.2098
     74 H          -4.3729    1.4461   -2.3384 H       1  UNL1        0.2102
@<TRIPOS>BOND
     1     1    21    1
     2     1    70    1
     3     2    27    1
     4     2    73    1
     5     3    28    1
     6     3    74    1
     7     4     5    1
     8     4     6    1
     9     4     9    1
    10     4    12    1
    11     5     7    1
    12     5    10    1
    13     5    31    1
    14     6     8    1
    15     6    11    1
    16     6    32    1
    17     7     8    1
    18     7    33    1
    19     7    34    1
    20     8    35    1
    21     8    36    1
    22     9    13    1
    23     9    37    1
    24     9    38    1
    25    10    15    1
    26    10    16    1
    27    10    39    1
    28    11    14    1
    29    11    17    2
    30    12    40    1
    31    12    41    1
    32    12    42    1
    33    13    14    1
    34    13    43    1
    35    13    44    1
    36    14    45    1
    37    14    46    1
    38    15    18    1
    39    15    47    1
    40    15    48    1
    41    16    49    1
    42    16    50    1
    43    16    51    1
    44    17    20    1
    45    17    52    1
    46    18    19    1
    47    18    53    1
    48    18    54    1
    49    19    21    1
    50    19    55    1
    51    19    56    1
    52    20    22    2
    53    20    57    1
    54    21    24    1
    55    21    25    1
    56    22    23    1
    57    22    26    1
    58    23    27    1
    59    23    58    1
    60    23    59    1
    61    24    60    1
    62    24    61    1
    63    24    62    1
    64    25    63    1
    65    25    64    1
    66    25    65    1
    67    26    28    1
    68    26    30    2
    69    27    29    1
    70    27    66    1
    71    28    29    1
    72    28    67    1
    73    29    68    1
    74    29    69    1
    75    30    71    1
    76    30    72    1
