@<TRIPOS>MOLECULE
chenodeoxycholic_acid
 68 71 0 0 0
SMALL
GASTEIGER

@<TRIPOS>ATOM
      1 O          -2.2896    2.2896    1.1329 O.3     1  UNL1       -0.3915
      2 O          -5.8692   -0.9070    2.3628 O.3     1  UNL1       -0.3918
      3 O           7.4191   -1.2919   -0.5923 O.3     1  UNL1       -0.4806
      4 O           6.4579    0.7449   -0.8820 O.2     1  UNL1       -0.2510
      5 C           0.1029    1.0201    0.1893 C.3     1  UNL1       -0.0299
      6 C           1.0947   -0.1011   -0.1877 C.3     1  UNL1       -0.0258
      7 C          -1.2183    0.9436   -0.5905 C.3     1  UNL1       -0.0083
      8 C          -1.8961   -0.4362   -0.2900 C.3     1  UNL1       -0.0299
      9 C          -3.2643   -0.5935   -1.0572 C.3     1  UNL1       -0.0258
     10 C           2.2896    0.3140    0.7057 C.3     1  UNL1       -0.0328
     11 C          -4.2036    0.6035   -0.6900 C.3     1  UNL1       -0.0307
     12 C           0.4464   -1.4389    0.1895 C.3     1  UNL1       -0.0468
     13 C          -0.9164   -1.6244   -0.5006 C.3     1  UNL1       -0.0489
     14 C          -2.1535    2.1264   -0.2755 C.3     1  UNL1        0.0589
     15 C           0.9434    2.2901    0.0892 C.3     1  UNL1       -0.0491
     16 C           2.3454    1.8516    0.5504 C.3     1  UNL1       -0.0492
     17 C          -3.5316    1.9716   -0.9250 C.3     1  UNL1       -0.0232
     18 C          -3.9948   -1.9254   -0.7133 C.3     1  UNL1       -0.0448
     19 C           1.4967   -0.1180   -1.6835 C.3     1  UNL1       -0.0590
     20 C           3.6237   -0.3590    0.4169 C.3     1  UNL1       -0.0400
     21 C          -4.7745    0.5021    0.7403 C.3     1  UNL1       -0.0234
     22 C          -3.0453   -0.6179   -2.5939 C.3     1  UNL1       -0.0590
     23 C          -4.5198   -1.9962    0.7141 C.3     1  UNL1       -0.0263
     24 C          -5.4614   -0.8348    1.0006 C.3     1  UNL1        0.0555
     25 C           4.7126    0.1934    1.3594 C.3     1  UNL1       -0.0401
     26 C           3.4804   -1.8802    0.5334 C.3     1  UNL1       -0.0621
     27 C           6.0756   -0.4801    1.1880 C.3     1  UNL1        0.0450
     28 C           6.6501   -0.2459   -0.1911 C.2     1  UNL1        0.3047
     29 H          -0.1462    0.9000    1.2567 H       1  UNL1        0.0310
     30 H          -0.9930    1.0044   -1.6598 H       1  UNL1        0.0331
     31 H          -2.1194   -0.4416    0.7858 H       1  UNL1        0.0310
     32 H           2.0232    0.1069    1.7540 H       1  UNL1        0.0309
     33 H          -5.0740    0.5656   -1.3621 H       1  UNL1        0.0308
     34 H           0.2986   -1.4951    1.2757 H       1  UNL1        0.0271
     35 H           1.0447   -2.3056   -0.0881 H       1  UNL1        0.0271
     36 H          -0.7533   -1.8001   -1.5682 H       1  UNL1        0.0268
     37 H          -1.3593   -2.5434   -0.1011 H       1  UNL1        0.0268
     38 H          -1.7105    3.0551   -0.6556 H       1  UNL1        0.0596
     39 H           0.5585    3.0980    0.7184 H       1  UNL1        0.0268
     40 H           0.9811    2.6641   -0.9401 H       1  UNL1        0.0268
     41 H           3.0875    2.1695   -0.1909 H       1  UNL1        0.0268
     42 H           2.6046    2.3264    1.5033 H       1  UNL1        0.0268
     43 H          -3.4270    2.1311   -2.0052 H       1  UNL1        0.0293
     44 H          -4.1972    2.7641   -0.5603 H       1  UNL1        0.0293
     45 H          -3.3530   -2.7907   -0.9103 H       1  UNL1        0.0271
     46 H          -4.8544   -2.0452   -1.3883 H       1  UNL1        0.0271
     47 H           0.6346   -0.2107   -2.3494 H       1  UNL1        0.0235
     48 H           2.0261    0.7920   -1.9830 H       1  UNL1        0.0235
     49 H           2.1509   -0.9633   -1.9171 H       1  UNL1        0.0235
     50 H           3.9353   -0.1330   -0.6094 H       1  UNL1        0.0301
     51 H          -3.9969    0.6457    1.4967 H       1  UNL1        0.0293
     52 H          -5.4950    1.3119    0.9135 H       1  UNL1        0.0293
     53 H          -4.0058   -0.6484   -3.1224 H       1  UNL1        0.0235
     54 H          -2.5099    0.2584   -2.9661 H       1  UNL1        0.0235
     55 H          -2.4851   -1.5049   -2.9069 H       1  UNL1        0.0235
     56 H          -5.0523   -2.9430    0.8674 H       1  UNL1        0.0290
     57 H          -3.6916   -2.0096    1.4327 H       1  UNL1        0.0290
     58 H          -6.3619   -0.9186    0.3819 H       1  UNL1        0.0593
     59 H           4.8358    1.2717    1.2047 H       1  UNL1        0.0273
     60 H           4.3955    0.0605    2.4016 H       1  UNL1        0.0273
     61 H          -1.4780    2.7008    1.4721 H       1  UNL1        0.2098
     62 H           2.9475   -2.1739    1.4433 H       1  UNL1        0.0233
     63 H           2.9867   -2.3012   -0.3430 H       1  UNL1        0.0233
     64 H           4.4427   -2.3956    0.5437 H       1  UNL1        0.0233
     65 H          -5.0762   -0.8293    2.9202 H       1  UNL1        0.2098
     66 H           6.7825   -0.0361    1.8995 H       1  UNL1        0.0378
     67 H           6.0434   -1.5476    1.4167 H       1  UNL1        0.0378
     68 H           7.7917   -1.1487   -1.4884 H       1  UNL1        0.2951
@<TRIPOS>BOND
     1     1    14    1
     2     1    61    1
     3     2    24    1
     4     2    65    1
     5     3    28    1
     6     3    68    1
     7     4    28    2
     8     5     6    1
     9     5     7    1
    10     5    15    1
    11     5    29    1
    12     6    10    1
    13     6    12    1
    14     6    19    1
    15     7     8    1
    16     7    14    1
    17     7    30    1
    18     8     9    1
    19     8    13    1
    20     8    31    1
    21     9    11    1
    22     9    18    1
    23     9    22    1
    24    10    16    1
    25    10    20    1
    26    10    32    1
    27    11    17    1
    28    11    21    1
    29    11    33    1
    30    12    13    1
    31    12    34    1
    32    12    35    1
    33    13    36    1
    34    13    37    1
    35    14    17    1
    36    14    38    1
    37    15    16    1
    38    15    39    1
    39    15    40    1
    40    16    41    1
    41    16    42    1
    42    17    43    1
    43    17    44    1
    44    18    23    1
    45    18    45    1
    46    18    46    1
    47    19    47    1
    48    19    48    1
    49    19    49    1
    50    20    25    1
    51    20    26    1
    52    20    50    1
    53    21    24    1
    54    21    51    1
    55    21    52    1
    56    22    53    1
    57    22    54    1
    58    22    55    1
    59    23    24    1
    60    23    56    1
    61    23    57    1
    62    24    58    1
    63    25    27    1
    64    25    59    1
    65    25    60    1
    66    26    62    1
    67    26    63    1
    68    26    64    1
    69    27    28    1
    70    27    66    1
    71    27    67    1
