@<TRIPOS>MOLECULE
cholesteryl_oleate
 125 128 0 0 0
SMALL
GASTEIGER

@<TRIPOS>ATOM
      1 O           0.7663    2.0890   -1.5087 O.3     1  UNL1       -0.4610
      2 O          -1.0410    3.2346   -0.6721 O.2     1  UNL1       -0.2508
      3 C          -3.0210   -3.4359    4.4637 C.3     1  UNL1       -0.0259
      4 C          -2.2280   -3.8614    3.1954 C.3     1  UNL1       -0.0320
      5 C          -2.2276   -2.8221    2.0444 C.3     1  UNL1       -0.0307
      6 C          -1.5357   -1.5410    2.5556 C.3     1  UNL1       -0.0285
      7 C          -2.8920   -4.7755    5.3245 C.3     1  UNL1       -0.0328
      8 C          -2.3105   -2.1660    4.9944 C.3     1  UNL1       -0.0468
      9 C          -1.3474   -0.4305    1.4066 C.3     1  UNL1       -0.0077
     10 C          -2.7501   -5.2466    2.8723 C.3     1  UNL1       -0.0492
     11 C          -2.1532   -1.0494    3.9096 C.3     1  UNL1       -0.0486
     12 C          -3.0618   -5.8717    4.2357 C.3     1  UNL1       -0.0492
     13 C          -1.4929   -3.3616    0.8034 C.3     1  UNL1       -0.0311
     14 C          -3.8475   -5.0611    6.5396 C.3     1  UNL1       -0.0405
     15 C          -4.4997   -3.1095    4.1550 C.3     1  UNL1       -0.0590
     16 C          -1.0758   -0.9839   -0.0033 C.2     1  UNL1       -0.0638
     17 C          -0.0401    0.3196    1.7886 C.3     1  UNL1       -0.0403
     18 C          -1.1387   -2.3209   -0.2280 C.2     1  UNL1       -0.0838
     19 C          -2.6283    0.4248    1.2730 C.3     1  UNL1       -0.0556
     20 C          -0.7045    0.0358   -1.0783 C.3     1  UNL1        0.0061
     21 C           0.6543    1.2325    0.7838 C.3     1  UNL1       -0.0146
     22 C          -3.8967   -6.5575    7.0754 C.3     1  UNL1       -0.0502
     23 C           0.5272    0.8867   -0.7038 C.3     1  UNL1        0.1068
     24 C          -3.6745   -4.0461    7.6769 C.3     1  UNL1       -0.0621
     25 C          -2.6295   -7.2527    7.6212 C.3     1  UNL1       -0.0526
     26 C          -2.8061   -8.7704    7.9884 C.3     1  UNL1       -0.0507
     27 C          -2.9891   -9.7829    6.8260 C.3     1  UNL1       -0.0467
     28 C           0.0314    3.2160   -1.2691 C.2     1  UNL1        0.3073
     29 C           0.7202    4.4647   -1.7977 C.3     1  UNL1        0.0449
     30 C          -1.7636   -9.8377    5.9134 C.3     1  UNL1       -0.0627
     31 C          -3.2561  -11.2115    7.3305 C.3     1  UNL1       -0.0627
     32 C           0.6210    5.6711   -0.8471 C.3     1  UNL1       -0.0430
     33 C           1.3887    5.4821    0.4640 C.3     1  UNL1       -0.0526
     34 C           1.4768    6.7740    1.2866 C.3     1  UNL1       -0.0530
     35 C           0.1683    7.2156    1.9712 C.3     1  UNL1       -0.0528
     36 C          -0.3204    6.2814    3.0997 C.3     1  UNL1       -0.0496
     37 C           0.8504    5.9742    4.0372 C.3     1  UNL1       -0.0348
     38 C           0.5869    5.5272    5.4413 C.2     1  UNL1       -0.0879
     39 C           0.8982    6.2248    6.5513 C.2     1  UNL1       -0.0879
     40 C           1.4794    7.6176    6.6223 C.3     1  UNL1       -0.0348
     41 C           0.4506    8.7621    6.6085 C.3     1  UNL1       -0.0496
     42 C          -0.1390    9.1779    7.9694 C.3     1  UNL1       -0.0528
     43 C           0.8599    9.5648    9.0936 C.3     1  UNL1       -0.0530
     44 C           1.1867   11.0655    9.0913 C.3     1  UNL1       -0.0531
     45 C           1.9991   11.6549   10.2634 C.3     1  UNL1       -0.0533
     46 C           3.3350   10.9923   10.6068 C.3     1  UNL1       -0.0559
     47 C           4.1134   11.8150   11.6395 C.3     1  UNL1       -0.0653
     48 H          -1.1749   -3.9952    3.4968 H       1  UNL1        0.0309
     49 H          -3.2521   -2.5862    1.7449 H       1  UNL1        0.0309
     50 H          -0.5247   -1.8648    2.8357 H       1  UNL1        0.0312
     51 H          -1.8603   -4.8305    5.7004 H       1  UNL1        0.0309
     52 H          -2.8512   -1.7478    5.8509 H       1  UNL1        0.0271
     53 H          -1.3109   -2.4282    5.3644 H       1  UNL1        0.0271
     54 H          -2.0177   -5.8440    2.3197 H       1  UNL1        0.0268
     55 H          -3.6584   -5.1927    2.2622 H       1  UNL1        0.0268
     56 H          -1.5167   -0.2592    4.3327 H       1  UNL1        0.0268
     57 H          -3.1341   -0.5890    3.7475 H       1  UNL1        0.0268
     58 H          -2.3969   -6.7161    4.4415 H       1  UNL1        0.0268
     59 H          -4.0871   -6.2565    4.2124 H       1  UNL1        0.0268
     60 H          -0.5508   -3.8485    1.1074 H       1  UNL1        0.0310
     61 H          -2.1120   -4.1357    0.3217 H       1  UNL1        0.0310
     62 H          -4.8693   -4.8980    6.1711 H       1  UNL1        0.0301
     63 H          -5.0320   -2.7863    5.0580 H       1  UNL1        0.0235
     64 H          -4.6047   -2.3007    3.4261 H       1  UNL1        0.0235
     65 H          -5.0377   -3.9706    3.7471 H       1  UNL1        0.0235
     66 H          -0.1861    0.8748    2.7195 H       1  UNL1        0.0275
     67 H           0.7143   -0.4475    2.0123 H       1  UNL1        0.0275
     68 H          -0.9102   -2.6990   -1.2167 H       1  UNL1        0.0572
     69 H          -2.5994    1.1344    0.4379 H       1  UNL1        0.0238
     70 H          -3.4937   -0.2260    1.0775 H       1  UNL1        0.0238
     71 H          -2.8461    1.0100    2.1638 H       1  UNL1        0.0238
     72 H          -1.5547    0.6819   -1.3224 H       1  UNL1        0.0346
     73 H          -0.4857   -0.4743   -2.0287 H       1  UNL1        0.0346
     74 H           0.3772    2.2648    1.0019 H       1  UNL1        0.0301
     75 H           1.7326    1.2109    1.0098 H       1  UNL1        0.0301
     76 H          -4.6504   -6.5896    7.8757 H       1  UNL1        0.0268
     77 H          -4.3064   -7.1814    6.2747 H       1  UNL1        0.0268
     78 H           1.3910    0.2555   -0.9538 H       1  UNL1        0.0737
     79 H          -3.9583   -3.0430    7.3415 H       1  UNL1        0.0233
     80 H          -4.3351   -4.2804    8.5200 H       1  UNL1        0.0233
     81 H          -2.6472   -4.0020    8.0487 H       1  UNL1        0.0233
     82 H          -1.7961   -7.1414    6.9244 H       1  UNL1        0.0265
     83 H          -2.3337   -6.7422    8.5475 H       1  UNL1        0.0265
     84 H          -1.9163   -9.0780    8.5564 H       1  UNL1        0.0268
     85 H          -3.6504   -8.8732    8.6828 H       1  UNL1        0.0268
     86 H          -3.8601   -9.4879    6.2310 H       1  UNL1        0.0295
     87 H           1.7765    4.2552   -2.0039 H       1  UNL1        0.0377
     88 H           0.2445    4.7237   -2.7504 H       1  UNL1        0.0377
     89 H          -0.8720  -10.1528    6.4674 H       1  UNL1        0.0232
     90 H          -1.9184  -10.5565    5.1005 H       1  UNL1        0.0232
     91 H          -1.5617   -8.8657    5.4569 H       1  UNL1        0.0232
     92 H          -4.1609  -11.2712    7.9432 H       1  UNL1        0.0232
     93 H          -3.3848  -11.9056    6.4921 H       1  UNL1        0.0232
     94 H          -2.4163  -11.5974    7.9343 H       1  UNL1        0.0232
     95 H           1.0309    6.5490   -1.3642 H       1  UNL1        0.0270
     96 H          -0.4290    5.8951   -0.6294 H       1  UNL1        0.0270
     97 H           0.9391    4.6814    1.0601 H       1  UNL1        0.0265
     98 H           2.4128    5.1628    0.2334 H       1  UNL1        0.0265
     99 H           2.2647    6.6406    2.0372 H       1  UNL1        0.0265
    100 H           1.8387    7.5933    0.6545 H       1  UNL1        0.0265
    101 H           0.3519    8.2005    2.4242 H       1  UNL1        0.0265
    102 H          -0.6233    7.3705    1.2304 H       1  UNL1        0.0265
    103 H          -1.1507    6.7663    3.6313 H       1  UNL1        0.0268
    104 H          -0.7261    5.3572    2.6668 H       1  UNL1        0.0268
    105 H           1.4518    5.1842    3.5702 H       1  UNL1        0.0307
    106 H           1.4879    6.8612    4.0716 H       1  UNL1        0.0307
    107 H           0.2404    4.5006    5.5542 H       1  UNL1        0.0569
    108 H           0.8102    5.7105    7.5075 H       1  UNL1        0.0569
    109 H           2.1180    7.6690    7.5062 H       1  UNL1        0.0307
    110 H           2.1722    7.7735    5.7881 H       1  UNL1        0.0307
    111 H           0.9209    9.6441    6.1559 H       1  UNL1        0.0268
    112 H          -0.3807    8.5012    5.9397 H       1  UNL1        0.0268
    113 H          -0.8141   10.0268    7.7836 H       1  UNL1        0.0265
    114 H          -0.7845    8.3659    8.3245 H       1  UNL1        0.0265
    115 H           1.7855    8.9910    9.0192 H       1  UNL1        0.0265
    116 H           0.4021    9.2929   10.0526 H       1  UNL1        0.0265
    117 H           1.7074   11.3024    8.1581 H       1  UNL1        0.0265
    118 H           0.2405   11.6197    9.0704 H       1  UNL1        0.0265
    119 H           2.2051   12.7004    9.9943 H       1  UNL1        0.0265
    120 H           1.3753   11.6961   11.1646 H       1  UNL1        0.0265
    121 H           3.1696    9.9881   11.0111 H       1  UNL1        0.0263
    122 H           3.9484   10.8939    9.7058 H       1  UNL1        0.0263
    123 H           3.5913   11.8444   12.6020 H       1  UNL1        0.0230
    124 H           5.1049   11.3819   11.8106 H       1  UNL1        0.0230
    125 H           4.2575   12.8479   11.3031 H       1  UNL1        0.0230
@<TRIPOS>BOND
     1     1    28    1
     2     2    28    2
     3     3     4    1
     4     3     7    1
     5     3     8    1
     6     3    15    1
     7     4     5    1
     8     4    10    1
     9     4    48    1
    10     5     6    1
    11     5    13    1
    12     5    49    1
    13     6     9    1
    14     6    11    1
    15     6    50    1
    16     7    12    1
    17     8    11    1
    18     8    52    1
    19     8    53    1
    20     9    16    1
    21     9    17    1
    22     9    19    1
    23    10    12    1
    24    10    54    1
    25    10    55    1
    26    11    56    1
    27    11    57    1
    28    12    58    1
    29    12    59    1
    30    13    18    1
    31    13    60    1
    32    13    61    1
    33    14    22    1
    34    14    24    1
    35    14    62    1
    36    15    63    1
    37    15    64    1
    38    15    65    1
    39    16    18    2
    40    16    20    1
    41    17    21    1
    42    17    66    1
    43    17    67    1
    44    18    68    1
    45    19    69    1
    46    19    70    1
    47    19    71    1
    48    20    23    1
    49    20    72    1
    50    20    73    1
    51    21    23    1
    52    21    74    1
    53    21    75    1
    54    22    25    1
    55    22    76    1
    56    22    77    1
    57    24    79    1
    58    24    80    1
    59    24    81    1
    60    25    26    1
    61    25    82    1
    62    25    83    1
    63    26    27    1
    64    26    84    1
    65    26    85    1
    66    27    30    1
    67    27    31    1
    68    27    86    1
    69    28    29    1
    70    29    32    1
    71    29    87    1
    72    29    88    1
    73    30    89    1
    74    30    90    1
    75    30    91    1
    76    31    92    1
    77    31    93    1
    78    31    94    1
    79    32    33    1
    80    32    95    1
    81    32    96    1
    82    33    34    1
    83    33    97    1
    84    33    98    1
    85    34    35    1
    86    34    99    1
    87    34   100    1
    88    35    36    1
    89    35   101    1
    90    35   102    1
    91    36    37    1
    92    36   103    1
    93    36   104    1
    94    37    38    1
    95    37   105    1
    96    37   106    1
    97    38    39    2
    98    38   107    1
    99    39    40    1
   100    39   108    1
   101    40    41    1
   102    40   109    1
   103    40   110    1
   104    41    42    1
   105    41   111    1
   106    41   112    1
   107    42    43    1
   108    42   113    1
   109    42   114    1
   110    43    44    1
   111    43   115    1
   112    43   116    1
   113    44    45    1
   114    44   117    1
   115    44   118    1
   116    45    46    1
   117    45   119    1
   118    45   120    1
   119    46    47    1
   120    46   121    1
   121    46   122    1
   122    47   123    1
   123    47   124    1
   124    47   125    1
   125     7    51    1
   126     7    14    1
   127    23    78    1
   128    23     1    1
