@<TRIPOS>MOLECULE
cholesterol
 74 77 0 0 0
SMALL
GASTEIGER

@<TRIPOS>ATOM
      1 O           7.4996    1.5828   -0.3199 O.3     1  UNL1       -0.3915
      2 C          -0.8177   -1.1082   -0.2032 C.3     1  UNL1       -0.0259
      3 C          -0.1192   -0.4371    0.9962 C.3     1  UNL1       -0.0320
      4 C           1.4069   -0.5652    0.9577 C.3     1  UNL1       -0.0307
      5 C           1.9478    0.0601   -0.3611 C.3     1  UNL1       -0.0285
      6 C          -2.2919   -0.8444    0.1890 C.3     1  UNL1       -0.0328
      7 C          -0.3507   -0.3835   -1.4733 C.3     1  UNL1       -0.0468
      8 C           3.5192   -0.0819   -0.4669 C.3     1  UNL1       -0.0078
      9 C          -0.8724   -0.9821    2.2059 C.3     1  UNL1       -0.0492
     10 C           1.1802   -0.4327   -1.6188 C.3     1  UNL1       -0.0486
     11 C          -2.3228   -1.1293    1.7092 C.3     1  UNL1       -0.0492
     12 C           2.0419    0.1295    2.1715 C.3     1  UNL1       -0.0311
     13 C          -3.3507   -1.6209   -0.5805 C.3     1  UNL1       -0.0405
     14 C          -0.5360   -2.6262   -0.3284 C.3     1  UNL1       -0.0590
     15 C           4.1902    0.2693    0.8685 C.2     1  UNL1       -0.0648
     16 C           4.0250    0.9005   -1.5654 C.3     1  UNL1       -0.0413
     17 C           3.5099    0.3709    2.0236 C.2     1  UNL1       -0.0839
     18 C           3.9298   -1.5261   -0.8427 C.3     1  UNL1       -0.0556
     19 C           5.6816    0.5131    0.8483 C.3     1  UNL1       -0.0051
     20 C           5.5422    1.0788   -1.6005 C.3     1  UNL1       -0.0258
     21 C          -4.7871   -1.2758   -0.1342 C.3     1  UNL1       -0.0502
     22 C           6.0799    1.5067   -0.2396 C.3     1  UNL1        0.0590
     23 C          -3.2110   -1.3511   -2.0841 C.3     1  UNL1       -0.0621
     24 C          -5.1857    0.2026   -0.2341 C.3     1  UNL1       -0.0526
     25 C          -6.5950    0.4923    0.2927 C.3     1  UNL1       -0.0507
     26 C          -7.0210    1.9641    0.1265 C.3     1  UNL1       -0.0467
     27 C          -6.9608    2.4322   -1.3284 C.3     1  UNL1       -0.0627
     28 C          -6.1320    2.8612    0.9919 C.3     1  UNL1       -0.0627
     29 H          -0.3420    0.6430    0.9624 H       1  UNL1        0.0309
     30 H           1.6832   -1.6247    1.0013 H       1  UNL1        0.0309
     31 H           1.7287    1.1384   -0.2924 H       1  UNL1        0.0312
     32 H          -2.4681    0.2316    0.0536 H       1  UNL1        0.0309
     33 H          -0.6679    0.6670   -1.4515 H       1  UNL1        0.0271
     34 H          -0.7587   -0.8152   -2.3872 H       1  UNL1        0.0271
     35 H          -0.8128   -0.3057    3.0646 H       1  UNL1        0.0268
     36 H          -0.4762   -1.9538    2.5211 H       1  UNL1        0.0268
     37 H           1.4682   -1.4584   -1.8669 H       1  UNL1        0.0268
     38 H           1.4577    0.1809   -2.4834 H       1  UNL1        0.0268
     39 H          -2.6868   -2.1380    1.9354 H       1  UNL1        0.0268
     40 H          -2.9829   -0.4196    2.2204 H       1  UNL1        0.0268
     41 H           1.8749   -0.4861    3.0637 H       1  UNL1        0.0310
     42 H           1.5596    1.0968    2.3598 H       1  UNL1        0.0310
     43 H          -3.2280   -2.6991   -0.4184 H       1  UNL1        0.0301
     44 H          -0.9839   -3.0472   -1.2333 H       1  UNL1        0.0235
     45 H           0.5324   -2.8514   -0.3834 H       1  UNL1        0.0235
     46 H          -0.9299   -3.1942    0.5205 H       1  UNL1        0.0235
     47 H           3.5741    1.8900   -1.4087 H       1  UNL1        0.0274
     48 H           3.6971    0.5660   -2.5568 H       1  UNL1        0.0274
     49 H           4.0374    0.6439    2.9344 H       1  UNL1        0.0572
     50 H           3.6098   -1.7868   -1.8567 H       1  UNL1        0.0238
     51 H           5.0153   -1.6694   -0.8217 H       1  UNL1        0.0238
     52 H           3.5014   -2.2625   -0.1550 H       1  UNL1        0.0238
     53 H           6.0427    0.8850    1.8160 H       1  UNL1        0.0335
     54 H           6.2092   -0.4372    0.6979 H       1  UNL1        0.0335
     55 H           6.0327    0.1540   -1.9285 H       1  UNL1        0.0290
     56 H           5.8095    1.8311   -2.3531 H       1  UNL1        0.0290
     57 H          -5.4968   -1.8725   -0.7224 H       1  UNL1        0.0268
     58 H          -4.9223   -1.6028    0.9045 H       1  UNL1        0.0268
     59 H           5.7045    2.5078    0.0055 H       1  UNL1        0.0596
     60 H          -3.0371   -0.2938   -2.3068 H       1  UNL1        0.0233
     61 H          -4.1284   -1.6408   -2.6111 H       1  UNL1        0.0233
     62 H          -2.4266   -1.9624   -2.5342 H       1  UNL1        0.0233
     63 H          -4.4754    0.8060    0.3359 H       1  UNL1        0.0265
     64 H          -5.1073    0.5076   -1.2817 H       1  UNL1        0.0265
     65 H           7.8276    1.8603    0.5525 H       1  UNL1        0.2098
     66 H          -6.6571    0.2080    1.3505 H       1  UNL1        0.0268
     67 H          -7.3119   -0.1425   -0.2432 H       1  UNL1        0.0268
     68 H          -8.0556    2.0552    0.4799 H       1  UNL1        0.0295
     69 H          -7.5096    1.7460   -1.9817 H       1  UNL1        0.0232
     70 H          -7.4214    3.4218   -1.4250 H       1  UNL1        0.0232
     71 H          -5.9346    2.5173   -1.6989 H       1  UNL1        0.0232
     72 H          -6.1070    2.5091    2.0285 H       1  UNL1        0.0232
     73 H          -6.5260    3.8837    1.0014 H       1  UNL1        0.0232
     74 H          -5.1039    2.9156    0.6205 H       1  UNL1        0.0232
@<TRIPOS>BOND
     1     1    22    1
     2     1    65    1
     3     2     3    1
     4     2     6    1
     5     2     7    1
     6     2    14    1
     7     3     4    1
     8     3     9    1
     9     3    29    1
    10     4     5    1
    11     4    12    1
    12     4    30    1
    13     5     8    1
    14     5    10    1
    15     5    31    1
    16     6    11    1
    17     6    13    1
    18     6    32    1
    19     7    10    1
    20     7    33    1
    21     7    34    1
    22     8    15    1
    23     8    16    1
    24     8    18    1
    25     9    11    1
    26     9    35    1
    27     9    36    1
    28    10    37    1
    29    10    38    1
    30    11    39    1
    31    11    40    1
    32    12    17    1
    33    12    41    1
    34    12    42    1
    35    13    21    1
    36    13    23    1
    37    13    43    1
    38    14    44    1
    39    14    45    1
    40    14    46    1
    41    15    17    2
    42    15    19    1
    43    16    20    1
    44    16    47    1
    45    16    48    1
    46    17    49    1
    47    18    50    1
    48    18    51    1
    49    18    52    1
    50    19    22    1
    51    19    53    1
    52    19    54    1
    53    20    22    1
    54    20    55    1
    55    20    56    1
    56    21    24    1
    57    21    57    1
    58    21    58    1
    59    22    59    1
    60    23    60    1
    61    23    61    1
    62    23    62    1
    63    24    25    1
    64    24    63    1
    65    24    64    1
    66    25    26    1
    67    25    66    1
    68    25    67    1
    69    26    27    1
    70    26    28    1
    71    26    68    1
    72    27    69    1
    73    27    70    1
    74    27    71    1
    75    28    72    1
    76    28    73    1
    77    28    74    1
