@<TRIPOS>MOLECULE
cholic_acid
 69 72 0 0 0
SMALL
GASTEIGER

@<TRIPOS>ATOM
      1 O          -0.3172   -1.7887   -1.2959 O.3     1  UNL1       -0.3912
      2 O           2.3039    2.1741   -1.3901 O.3     1  UNL1       -0.3915
      3 O           5.8836   -1.1584   -2.1766 O.3     1  UNL1       -0.3918
      4 O          -7.4066   -1.1438    0.8067 O.3     1  UNL1       -0.4806
      5 O          -6.4428    0.9117    0.8549 O.2     1  UNL1       -0.2510
      6 C          -1.0854   -0.0179    0.2356 C.3     1  UNL1        0.0001
      7 C          -0.0922    1.0482   -0.2834 C.3     1  UNL1       -0.0276
      8 C           1.2311    1.0707    0.4977 C.3     1  UNL1       -0.0081
      9 C           1.9101   -0.3361    0.3863 C.3     1  UNL1       -0.0276
     10 C           3.2789   -0.3863    1.1699 C.3     1  UNL1       -0.0257
     11 C          -2.2842    0.2970   -0.6975 C.3     1  UNL1       -0.0304
     12 C          -0.4494   -1.4136    0.0749 C.3     1  UNL1        0.0614
     13 C           0.9318   -1.4897    0.7596 C.3     1  UNL1       -0.0226
     14 C           4.2177    0.7504    0.6441 C.3     1  UNL1       -0.0307
     15 C          -0.9284    2.3261   -0.3354 C.3     1  UNL1       -0.0490
     16 C           2.1669    2.2013    0.0274 C.3     1  UNL1        0.0589
     17 C          -2.3379    1.8420   -0.7197 C.3     1  UNL1       -0.0491
     18 C           3.5445    2.1370    0.6925 C.3     1  UNL1       -0.0232
     19 C           4.0116   -1.7515    1.0102 C.3     1  UNL1       -0.0448
     20 C          -1.4807    0.1791    1.7249 C.3     1  UNL1       -0.0567
     21 C          -3.6169   -0.3370   -0.3254 C.3     1  UNL1       -0.0400
     22 C           4.7888    0.4569   -0.7594 C.3     1  UNL1       -0.0234
     23 C           3.0600   -0.2018    2.6957 C.3     1  UNL1       -0.0590
     24 C           4.5359   -2.0152   -0.3946 C.3     1  UNL1       -0.0263
     25 C           5.4764   -0.9026   -0.8366 C.3     1  UNL1        0.0555
     26 C          -4.7112    0.1046   -1.3187 C.3     1  UNL1       -0.0401
     27 C          -3.4750   -1.8617   -0.2674 C.3     1  UNL1       -0.0621
     28 C          -6.0735   -0.5432   -1.0630 C.3     1  UNL1        0.0450
     29 C          -6.6395   -0.1517    0.2835 C.2     1  UNL1        0.3047
     30 H           0.1476    0.7994   -1.3290 H       1  UNL1        0.0310
     31 H           1.0070    1.2744    1.5494 H       1  UNL1        0.0331
     32 H           2.1350   -0.5010   -0.6748 H       1  UNL1        0.0310
     33 H          -2.0304   -0.0217   -1.7197 H       1  UNL1        0.0310
     34 H          -1.0472   -2.1924    0.5477 H       1  UNL1        0.0599
     35 H           1.3906   -2.4465    0.4862 H       1  UNL1        0.0293
     36 H           0.7819   -1.5099    1.8434 H       1  UNL1        0.0293
     37 H           5.0880    0.8043    1.3151 H       1  UNL1        0.0308
     38 H          -0.5401    3.0382   -1.0707 H       1  UNL1        0.0268
     39 H          -0.9497    2.8329    0.6358 H       1  UNL1        0.0268
     40 H           1.7183    3.1712    0.2706 H       1  UNL1        0.0596
     41 H          -3.0681    2.2443   -0.0082 H       1  UNL1        0.0268
     42 H          -2.6124    2.2057   -1.7162 H       1  UNL1        0.0268
     43 H           3.4390    2.4407    1.7411 H       1  UNL1        0.0293
     44 H           4.2097    2.8735    0.2244 H       1  UNL1        0.0293
     45 H           3.3721   -2.5832    1.3244 H       1  UNL1        0.0271
     46 H           4.8718   -1.7764    1.6945 H       1  UNL1        0.0271
     47 H          -2.1502   -0.6148    2.0707 H       1  UNL1        0.0236
     48 H          -0.6174    0.1598    2.3953 H       1  UNL1        0.0236
     49 H          -1.9931    1.1298    1.9018 H       1  UNL1        0.0236
     50 H          -3.9226    0.0058    0.6698 H       1  UNL1        0.0301
     51 H           4.0239    0.4873   -1.5374 H       1  UNL1        0.0293
     52 H           5.5099    1.2363   -1.0382 H       1  UNL1        0.0293
     53 H           4.0208   -0.1557    3.2226 H       1  UNL1        0.0235
     54 H           2.5208    0.7148    2.9455 H       1  UNL1        0.0235
     55 H           2.5043   -1.0402    3.1277 H       1  UNL1        0.0235
     56 H           5.0677   -2.9746   -0.4154 H       1  UNL1        0.0290
     57 H           3.7099   -2.1258   -1.1072 H       1  UNL1        0.0290
     58 H           6.3762   -0.8946   -0.2101 H       1  UNL1        0.0593
     59 H           0.0654   -2.6821   -1.3231 H       1  UNL1        0.2098
     60 H          -4.8330    1.1937   -1.2880 H       1  UNL1        0.0273
     61 H          -4.4007   -0.1475   -2.3407 H       1  UNL1        0.0273
     62 H           2.1814    1.2718   -1.7208 H       1  UNL1        0.2098
     63 H          -2.9546   -2.2626   -1.1420 H       1  UNL1        0.0233
     64 H          -2.9803   -2.1806    0.6495 H       1  UNL1        0.0233
     65 H          -4.4392   -2.3708   -0.2105 H       1  UNL1        0.0233
     66 H           6.3321   -2.0212   -2.1881 H       1  UNL1        0.2098
     67 H          -6.7845   -0.1828   -1.8165 H       1  UNL1        0.0378
     68 H          -6.0434   -1.6299   -1.1681 H       1  UNL1        0.0378
     69 H          -7.7737   -0.8982    1.6826 H       1  UNL1        0.2951
@<TRIPOS>BOND
     1     1    12    1
     2     1    59    1
     3     2    16    1
     4     2    62    1
     5     3    25    1
     6     3    66    1
     7     4    29    1
     8     4    69    1
     9     5    29    2
    10     6     7    1
    11     6    11    1
    12     6    12    1
    13     6    20    1
    14     7     8    1
    15     7    15    1
    16     7    30    1
    17     8     9    1
    18     8    16    1
    19     8    31    1
    20     9    10    1
    21     9    13    1
    22     9    32    1
    23    10    14    1
    24    10    19    1
    25    10    23    1
    26    11    17    1
    27    11    21    1
    28    11    33    1
    29    12    13    1
    30    12    34    1
    31    13    35    1
    32    13    36    1
    33    14    18    1
    34    14    22    1
    35    14    37    1
    36    15    17    1
    37    15    38    1
    38    15    39    1
    39    16    18    1
    40    16    40    1
    41    17    41    1
    42    17    42    1
    43    18    43    1
    44    18    44    1
    45    19    24    1
    46    19    45    1
    47    19    46    1
    48    20    47    1
    49    20    48    1
    50    20    49    1
    51    21    26    1
    52    21    27    1
    53    21    50    1
    54    22    25    1
    55    22    51    1
    56    22    52    1
    57    23    53    1
    58    23    54    1
    59    23    55    1
    60    24    25    1
    61    24    56    1
    62    24    57    1
    63    25    58    1
    64    26    28    1
    65    26    60    1
    66    26    61    1
    67    27    63    1
    68    27    64    1
    69    27    65    1
    70    28    29    1
    71    28    67    1
    72    28    68    1
