@<TRIPOS>MOLECULE
corticosterone
 55 58 0 0 0
SMALL
GASTEIGER

@<TRIPOS>ATOM
      1 O          -0.0648   -1.8752    1.4481 O.3     1  UNL1       -0.3915
      2 O          -5.2690    0.2890    0.6149 O.2     1  UNL1       -0.2947
      3 O           6.2671   -0.3792   -1.2746 O.2     1  UNL1       -0.2927
      4 O          -6.1807   -1.9359   -0.5840 O.3     1  UNL1       -0.3875
      5 C          -1.1000    1.2021   -0.3027 C.3     1  UNL1       -0.0317
      6 C          -2.0574    0.0513    0.0653 C.3     1  UNL1       -0.0171
      7 C           0.2827    1.0773    0.3511 C.3     1  UNL1       -0.0314
      8 C           0.9394   -0.2620   -0.1195 C.3     1  UNL1       -0.0028
      9 C           2.4203   -0.4413    0.4118 C.3     1  UNL1       -0.0049
     10 C          -1.4346   -1.2594   -0.4480 C.3     1  UNL1       -0.0202
     11 C          -3.3092    0.5116   -0.7192 C.3     1  UNL1        0.0255
     12 C          -0.0020   -1.4916    0.0814 C.3     1  UNL1        0.0596
     13 C          -1.9377    2.4513   -0.0497 C.3     1  UNL1       -0.0488
     14 C           1.1673    2.2719   -0.0376 C.3     1  UNL1       -0.0459
     15 C          -3.3494    2.0402   -0.5077 C.3     1  UNL1       -0.0426
     16 C           3.2199    0.8346    0.1146 C.2     1  UNL1       -0.0600
     17 C          -2.3722   -0.0394    1.5812 C.3     1  UNL1       -0.0586
     18 C           2.5761    2.1379    0.5203 C.3     1  UNL1       -0.0305
     19 C           3.0553   -1.6525   -0.3316 C.3     1  UNL1       -0.0366
     20 C           2.5054   -0.6870    1.9353 C.3     1  UNL1       -0.0555
     21 C          -4.5808   -0.1597   -0.3007 C.2     1  UNL1        0.1620
     22 C           4.5710   -1.7044   -0.2252 C.3     1  UNL1        0.0107
     23 C           4.4439    0.8448   -0.4391 C.2     1  UNL1       -0.0194
     24 C           5.1710   -0.4147   -0.7194 C.2     1  UNL1        0.1561
     25 C          -4.9619   -1.4098   -1.0648 C.3     1  UNL1        0.1025
     26 H          -0.9302    1.1720   -1.3928 H       1  UNL1        0.0309
     27 H           0.1825    1.0841    1.4408 H       1  UNL1        0.0307
     28 H           1.0290   -0.1627   -1.2148 H       1  UNL1        0.0337
     29 H          -1.3979   -1.2452   -1.5449 H       1  UNL1        0.0296
     30 H          -2.0638   -2.1086   -0.1584 H       1  UNL1        0.0296
     31 H          -3.1735    0.3334   -1.7950 H       1  UNL1        0.0383
     32 H           0.4049   -2.3526   -0.4592 H       1  UNL1        0.0596
     33 H          -1.5747    3.3164   -0.6136 H       1  UNL1        0.0268
     34 H          -1.9415    2.7219    1.0121 H       1  UNL1        0.0268
     35 H           0.7284    3.2030    0.3399 H       1  UNL1        0.0271
     36 H           1.2149    2.3651   -1.1305 H       1  UNL1        0.0271
     37 H          -4.0906    2.3738    0.2257 H       1  UNL1        0.0272
     38 H          -3.5993    2.5357   -1.4535 H       1  UNL1        0.0272
     39 H          -1.4966    0.0404    2.2230 H       1  UNL1        0.0235
     40 H          -3.0348    0.7676    1.9130 H       1  UNL1        0.0235
     41 H          -2.8762   -0.9830    1.8196 H       1  UNL1        0.0235
     42 H           2.5452    2.1964    1.6152 H       1  UNL1        0.0310
     43 H           3.1701    2.9971    0.1850 H       1  UNL1        0.0310
     44 H           2.7932   -1.6062   -1.3980 H       1  UNL1        0.0278
     45 H           2.6447   -2.5964    0.0467 H       1  UNL1        0.0278
     46 H           3.5320   -0.5606    2.3020 H       1  UNL1        0.0238
     47 H           1.8845    0.0101    2.5062 H       1  UNL1        0.0238
     48 H           2.2154   -1.7067    2.2058 H       1  UNL1        0.0238
     49 H           4.9472   -2.5241   -0.8473 H       1  UNL1        0.0345
     50 H           4.9025   -1.8771    0.8035 H       1  UNL1        0.0345
     51 H           0.0326   -1.0914    2.0076 H       1  UNL1        0.2098
     52 H           4.9736    1.7691   -0.6436 H       1  UNL1        0.0652
     53 H          -4.1913   -2.1710   -0.9356 H       1  UNL1        0.0636
     54 H          -5.0721   -1.1750   -2.1272 H       1  UNL1        0.0636
     55 H          -6.8778   -1.2875   -0.7823 H       1  UNL1        0.2100
@<TRIPOS>BOND
     1     1    12    1
     2     1    51    1
     3     2    21    2
     4     3    24    2
     5     4    25    1
     6     4    55    1
     7     5     6    1
     8     5     7    1
     9     5    13    1
    10     5    26    1
    11     6    10    1
    12     6    11    1
    13     6    17    1
    14     7     8    1
    15     7    14    1
    16     7    27    1
    17     8     9    1
    18     8    12    1
    19     8    28    1
    20     9    16    1
    21     9    19    1
    22     9    20    1
    23    10    12    1
    24    10    29    1
    25    10    30    1
    26    11    15    1
    27    11    21    1
    28    11    31    1
    29    12    32    1
    30    13    15    1
    31    13    33    1
    32    13    34    1
    33    14    18    1
    34    14    35    1
    35    14    36    1
    36    15    37    1
    37    15    38    1
    38    16    18    1
    39    16    23    2
    40    17    39    1
    41    17    40    1
    42    17    41    1
    43    18    42    1
    44    18    43    1
    45    19    22    1
    46    19    44    1
    47    19    45    1
    48    20    46    1
    49    20    47    1
    50    20    48    1
    51    21    25    1
    52    22    24    1
    53    22    49    1
    54    22    50    1
    55    23    24    1
    56    23    52    1
    57    25    53    1
    58    25    54    1
