@<TRIPOS>MOLECULE
cortisone
 54 57 0 0 0
SMALL
GASTEIGER

@<TRIPOS>ATOM
      1 O          -3.2449    0.3047   -1.8954 O.3     1  UNL1       -0.3804
      2 O           0.4214   -2.4664    0.6501 O.2     1  UNL1       -0.2971
      3 O          -5.4133    0.4316    0.5351 O.2     1  UNL1       -0.2919
      4 O          -5.8717   -2.1087   -0.4330 O.3     1  UNL1       -0.3874
      5 O           6.4175   -0.3208   -1.1427 O.2     1  UNL1       -0.2927
      6 C          -1.0170    1.2230   -0.2392 C.3     1  UNL1       -0.0286
      7 C          -1.9457    0.0536    0.1688 C.3     1  UNL1        0.0134
      8 C           0.3906    1.1106    0.3637 C.3     1  UNL1       -0.0270
      9 C           1.0490   -0.2199   -0.1102 C.3     1  UNL1        0.0297
     10 C          -3.2647    0.5315   -0.4888 C.3     1  UNL1        0.1318
     11 C           2.5157   -0.4095    0.4288 C.3     1  UNL1       -0.0005
     12 C          -1.8444    2.4653    0.0835 C.3     1  UNL1       -0.0463
     13 C          -1.3399   -1.2384   -0.3879 C.3     1  UNL1        0.0148
     14 C          -3.2989    2.0494   -0.2126 C.3     1  UNL1       -0.0162
     15 C           1.2645    2.3032   -0.0442 C.3     1  UNL1       -0.0456
     16 C           0.0829   -1.4033    0.1332 C.2     1  UNL1        0.1381
     17 C          -2.1206   -0.0869    1.7066 C.3     1  UNL1       -0.0559
     18 C           3.3221    0.8718    0.1584 C.2     1  UNL1       -0.0597
     19 C           2.6669    2.1796    0.5349 C.3     1  UNL1       -0.0305
     20 C           3.1704   -1.6050   -0.3255 C.3     1  UNL1       -0.0363
     21 C           2.5518   -0.6725    1.9515 C.3     1  UNL1       -0.0552
     22 C          -4.4965   -0.1778   -0.0137 C.2     1  UNL1        0.1902
     23 C           4.6835   -1.6632   -0.1833 C.3     1  UNL1        0.0107
     24 C           4.5619    0.8873   -0.3596 C.2     1  UNL1       -0.0194
     25 C           5.3009   -0.3661   -0.6307 C.2     1  UNL1        0.1561
     26 C          -4.5416   -1.6729   -0.2476 C.3     1  UNL1        0.1052
     27 H          -0.8933    1.2096   -1.3345 H       1  UNL1        0.0310
     28 H           0.3098    1.1165    1.4562 H       1  UNL1        0.0311
     29 H           1.1238   -0.1630   -1.2085 H       1  UNL1        0.0389
     30 H          -1.5473    3.3229   -0.5290 H       1  UNL1        0.0269
     31 H          -1.7368    2.7578    1.1340 H       1  UNL1        0.0269
     32 H          -1.2878   -1.2424   -1.4822 H       1  UNL1        0.0348
     33 H          -1.9085   -2.1198   -0.0789 H       1  UNL1        0.0348
     34 H          -3.9160    2.3206    0.6511 H       1  UNL1        0.0297
     35 H          -3.6774    2.6091   -1.0756 H       1  UNL1        0.0297
     36 H           0.8196    3.2394    0.3124 H       1  UNL1        0.0271
     37 H           1.3208    2.3742   -1.1383 H       1  UNL1        0.0271
     38 H          -1.1733   -0.2802    2.2189 H       1  UNL1        0.0236
     39 H          -2.5544    0.8085    2.1624 H       1  UNL1        0.0236
     40 H          -2.7768   -0.9257    1.9585 H       1  UNL1        0.0236
     41 H           2.6207    2.2530    1.6284 H       1  UNL1        0.0310
     42 H           3.2624    3.0363    0.1959 H       1  UNL1        0.0310
     43 H           2.9330   -1.5350   -1.3965 H       1  UNL1        0.0278
     44 H           2.7611   -2.5608    0.0183 H       1  UNL1        0.0278
     45 H           3.5779   -0.6535    2.3374 H       1  UNL1        0.0238
     46 H           1.9889    0.0777    2.5156 H       1  UNL1        0.0238
     47 H           2.1372   -1.6513    2.2094 H       1  UNL1        0.0238
     48 H          -4.0096    0.7588   -2.2888 H       1  UNL1        0.2108
     49 H           5.0724   -2.4692   -0.8154 H       1  UNL1        0.0345
     50 H           4.9886   -1.8623    0.8487 H       1  UNL1        0.0345
     51 H           5.0934    1.8145   -0.5463 H       1  UNL1        0.0652
     52 H          -4.1317   -2.1902    0.6220 H       1  UNL1        0.0637
     53 H          -3.9803   -1.9573   -1.1401 H       1  UNL1        0.0637
     54 H          -6.1996   -1.7072   -1.2558 H       1  UNL1        0.2100
@<TRIPOS>BOND
     1     1    10    1
     2     1    48    1
     3     2    16    2
     4     3    22    2
     5     4    26    1
     6     4    54    1
     7     5    25    2
     8     6     7    1
     9     6     8    1
    10     6    12    1
    11     6    27    1
    12     7    10    1
    13     7    13    1
    14     7    17    1
    15     8     9    1
    16     8    15    1
    17     8    28    1
    18     9    11    1
    19     9    16    1
    20     9    29    1
    21    10    14    1
    22    10    22    1
    23    11    18    1
    24    11    20    1
    25    11    21    1
    26    12    14    1
    27    12    30    1
    28    12    31    1
    29    13    16    1
    30    13    32    1
    31    13    33    1
    32    14    34    1
    33    14    35    1
    34    15    19    1
    35    15    36    1
    36    15    37    1
    37    17    38    1
    38    17    39    1
    39    17    40    1
    40    18    19    1
    41    18    24    2
    42    19    41    1
    43    19    42    1
    44    20    23    1
    45    20    43    1
    46    20    44    1
    47    21    45    1
    48    21    46    1
    49    21    47    1
    50    22    26    1
    51    23    25    1
    52    23    49    1
    53    23    50    1
    54    24    25    1
    55    24    51    1
    56    26    52    1
    57    26    53    1
