@<TRIPOS>MOLECULE
cortisol
 56 59 0 0 0
SMALL
GASTEIGER

@<TRIPOS>ATOM
      1 O           3.1144   -0.2859   -1.9416 O.3     1  UNL1       -0.3804
      2 O          -0.2290    2.1443    1.2399 O.3     1  UNL1       -0.3915
      3 O           4.3267    1.6729    0.0603 O.2     1  UNL1       -0.2919
      4 O           6.7987    0.5839   -0.4649 O.3     1  UNL1       -0.3874
      5 O          -6.4227   -0.0344   -1.3444 O.2     1  UNL1       -0.2927
      6 C           1.8917    0.1629    0.1439 C.3     1  UNL1        0.0091
      7 C           0.9976   -1.0770   -0.0738 C.3     1  UNL1       -0.0292
      8 C          -0.4048   -0.9389    0.5376 C.3     1  UNL1       -0.0314
      9 C          -1.1203    0.2887   -0.1144 C.3     1  UNL1       -0.0028
     10 C           3.2007   -0.3456   -0.5210 C.3     1  UNL1        0.1315
     11 C           1.2023    1.3572   -0.5469 C.3     1  UNL1       -0.0179
     12 C          -2.6188    0.4571    0.3689 C.3     1  UNL1       -0.0049
     13 C          -0.2481    1.5819   -0.0645 C.3     1  UNL1        0.0597
     14 C           1.8852   -2.2363    0.3713 C.3     1  UNL1       -0.0463
     15 C           3.3025   -1.8232   -0.0778 C.3     1  UNL1       -0.0162
     16 C          -1.2196   -2.2201    0.2998 C.3     1  UNL1       -0.0459
     17 C           2.1566    0.4723    1.6434 C.3     1  UNL1       -0.0562
     18 C          -3.3459   -0.8879    0.2342 C.2     1  UNL1       -0.0600
     19 C          -2.6438   -2.0894    0.8180 C.3     1  UNL1       -0.0305
     20 C          -3.3005    1.5233   -0.5375 C.3     1  UNL1       -0.0366
     21 C          -2.7469    0.8977    1.8447 C.3     1  UNL1       -0.0555
     22 C           4.4119    0.4683   -0.1739 C.2     1  UNL1        0.1902
     23 C          -4.8187    1.5076   -0.4589 C.3     1  UNL1        0.0107
     24 C          -4.5569   -1.0370   -0.3282 C.2     1  UNL1       -0.0194
     25 C          -5.3417    0.1333   -0.7839 C.2     1  UNL1        0.1561
     26 C           5.7297   -0.2757   -0.1305 C.3     1  UNL1        0.1052
     27 H           0.8473   -1.2116   -1.1581 H       1  UNL1        0.0310
     28 H          -0.3282   -0.7923    1.6194 H       1  UNL1        0.0307
     29 H          -1.1826    0.0413   -1.1878 H       1  UNL1        0.0337
     30 H           1.1651    1.1932   -1.6310 H       1  UNL1        0.0297
     31 H           1.7893    2.2693   -0.3873 H       1  UNL1        0.0297
     32 H          -0.6965    2.3364   -0.7206 H       1  UNL1        0.0596
     33 H           1.5866   -3.1835   -0.0893 H       1  UNL1        0.0269
     34 H           1.8513   -2.3707    1.4585 H       1  UNL1        0.0269
     35 H           3.9799   -1.9801    0.7680 H       1  UNL1        0.0297
     36 H           3.6327   -2.4726   -0.8968 H       1  UNL1        0.0297
     37 H          -0.7411   -3.0685    0.8028 H       1  UNL1        0.0271
     38 H          -1.2414   -2.4588   -0.7717 H       1  UNL1        0.0271
     39 H           2.5932    1.4674    1.7778 H       1  UNL1        0.0236
     40 H           1.2472    0.4542    2.2478 H       1  UNL1        0.0236
     41 H           2.8417   -0.2458    2.1066 H       1  UNL1        0.0236
     42 H          -2.6306   -2.0002    1.9112 H       1  UNL1        0.0310
     43 H          -3.1861   -3.0161    0.5933 H       1  UNL1        0.0310
     44 H          -3.0152    1.3502   -1.5848 H       1  UNL1        0.0278
     45 H          -2.9470    2.5298   -0.2833 H       1  UNL1        0.0278
     46 H          -2.0849    0.3299    2.5058 H       1  UNL1        0.0238
     47 H          -2.5197    1.9601    1.9758 H       1  UNL1        0.0238
     48 H          -3.7681    0.7560    2.2197 H       1  UNL1        0.0238
     49 H           3.8725   -0.7647   -2.3175 H       1  UNL1        0.2108
     50 H          -5.2240    2.2162   -1.1896 H       1  UNL1        0.0345
     51 H          -5.1788    1.7970    0.5334 H       1  UNL1        0.0345
     52 H           0.2825    2.9701    1.1999 H       1  UNL1        0.2098
     53 H          -5.0341   -2.0073   -0.4142 H       1  UNL1        0.0652
     54 H           5.7358   -1.0838   -0.8657 H       1  UNL1        0.0637
     55 H           5.8942   -0.6856    0.8696 H       1  UNL1        0.0637
     56 H           6.8615    1.2578    0.2335 H       1  UNL1        0.2100
@<TRIPOS>BOND
     1     1    10    1
     2     1    49    1
     3     2    13    1
     4     2    52    1
     5     3    22    2
     6     4    26    1
     7     4    56    1
     8     5    25    2
     9     6     7    1
    10     6    10    1
    11     6    11    1
    12     6    17    1
    13     7     8    1
    14     7    14    1
    15     7    27    1
    16     8     9    1
    17     8    16    1
    18     8    28    1
    19     9    12    1
    20     9    13    1
    21     9    29    1
    22    10    15    1
    23    10    22    1
    24    11    13    1
    25    11    30    1
    26    11    31    1
    27    12    18    1
    28    12    20    1
    29    12    21    1
    30    13    32    1
    31    14    15    1
    32    14    33    1
    33    14    34    1
    34    15    35    1
    35    15    36    1
    36    16    19    1
    37    16    37    1
    38    16    38    1
    39    17    39    1
    40    17    40    1
    41    17    41    1
    42    18    19    1
    43    18    24    2
    44    19    42    1
    45    19    43    1
    46    20    23    1
    47    20    44    1
    48    20    45    1
    49    21    46    1
    50    21    47    1
    51    21    48    1
    52    22    26    1
    53    23    25    1
    54    23    50    1
    55    23    51    1
    56    24    25    1
    57    24    53    1
    58    26    54    1
    59    26    55    1
