@<TRIPOS>MOLECULE
deoxycholic_acid
 68 71 0 0 0
SMALL
GASTEIGER

@<TRIPOS>ATOM
      1 O          -0.1436   -1.8775   -0.9691 O.3     1  UNL1       -0.3912
      2 O           5.8351   -1.3786   -2.1474 O.3     1  UNL1       -0.3918
      3 O          -7.3063   -0.9715    0.9957 O.3     1  UNL1       -0.4806
      4 O          -6.3646    1.0617    0.6271 O.2     1  UNL1       -0.2510
      5 C          -0.9963    0.0839    0.2091 C.3     1  UNL1        0.0000
      6 C          -0.0138    1.0334   -0.5170 C.3     1  UNL1       -0.0299
      7 C           1.3080    1.2189    0.2392 C.3     1  UNL1       -0.0342
      8 C           1.9962   -0.1746    0.4080 C.3     1  UNL1       -0.0299
      9 C           3.3876   -0.0593    1.1393 C.3     1  UNL1       -0.0259
     10 C          -2.1965    0.1908   -0.7690 C.3     1  UNL1       -0.0304
     11 C          -0.3382   -1.3063    0.3251 C.3     1  UNL1        0.0614
     12 C           1.0302   -1.2205    1.0354 C.3     1  UNL1       -0.0227
     13 C           4.2908    0.9710    0.3806 C.3     1  UNL1       -0.0330
     14 C          -0.8618    2.2653   -0.8262 C.3     1  UNL1       -0.0491
     15 C           2.2279    2.2114   -0.4841 C.3     1  UNL1       -0.0494
     16 C          -2.2660    1.6989   -1.1034 C.3     1  UNL1       -0.0491
     17 C           3.5928    2.3273    0.1874 C.3     1  UNL1       -0.0494
     18 C           4.1406   -1.4203    1.2042 C.3     1  UNL1       -0.0448
     19 C          -1.3987    0.5715    1.6272 C.3     1  UNL1       -0.0567
     20 C          -3.5231   -0.3694   -0.2764 C.3     1  UNL1       -0.0400
     21 C           4.7968    0.4347   -0.9755 C.3     1  UNL1       -0.0235
     22 C           3.2080    0.4013    2.6094 C.3     1  UNL1       -0.0590
     23 C           4.6068   -1.9361   -0.1512 C.3     1  UNL1       -0.0263
     24 C           5.4974   -0.9132   -0.8449 C.3     1  UNL1        0.0555
     25 C          -4.6199   -0.1495   -1.3384 C.3     1  UNL1       -0.0401
     26 C          -3.3650   -1.8491    0.0889 C.3     1  UNL1       -0.0621
     27 C          -5.9757   -0.7470   -0.9568 C.3     1  UNL1        0.0450
     28 C          -6.5488   -0.0974    0.2827 C.2     1  UNL1        0.3047
     29 H           0.2442    0.5959   -1.4955 H       1  UNL1        0.0310
     30 H           1.0919    1.6433    1.2247 H       1  UNL1        0.0306
     31 H           2.1945   -0.5396   -0.6088 H       1  UNL1        0.0310
     32 H          -1.9377   -0.3250   -1.7059 H       1  UNL1        0.0310
     33 H          -0.9341   -2.0127    0.9007 H       1  UNL1        0.0599
     34 H           1.4964   -2.2105    0.9838 H       1  UNL1        0.0293
     35 H           0.8713   -0.9997    2.0951 H       1  UNL1        0.0293
     36 H           5.1857    1.1562    0.9927 H       1  UNL1        0.0307
     37 H          -0.4795    2.8176   -1.6908 H       1  UNL1        0.0268
     38 H          -0.8896    2.9578    0.0225 H       1  UNL1        0.0268
     39 H           1.7642    3.2051   -0.5010 H       1  UNL1        0.0268
     40 H           2.3527    1.9143   -1.5321 H       1  UNL1        0.0268
     41 H          -3.0013    2.2294   -0.4876 H       1  UNL1        0.0268
     42 H          -2.5430    1.8505   -2.1527 H       1  UNL1        0.0268
     43 H           4.2304    2.9950   -0.4051 H       1  UNL1        0.0268
     44 H           3.4708    2.8182    1.1604 H       1  UNL1        0.0268
     45 H           3.5315   -2.1862    1.6960 H       1  UNL1        0.0271
     46 H           5.0298   -1.3060    1.8407 H       1  UNL1        0.0271
     47 H          -1.9384    1.5234    1.6065 H       1  UNL1        0.0236
     48 H          -2.0453   -0.1535    2.1315 H       1  UNL1        0.0236
     49 H          -0.5365    0.7175    2.2830 H       1  UNL1        0.0236
     50 H          -3.8345    0.1641    0.6290 H       1  UNL1        0.0301
     51 H           3.9807    0.3448   -1.7019 H       1  UNL1        0.0293
     52 H           5.4946    1.1551   -1.4226 H       1  UNL1        0.0293
     53 H           2.6442    1.3326    2.7003 H       1  UNL1        0.0235
     54 H           2.6913   -0.3565    3.2075 H       1  UNL1        0.0235
     55 H           4.1812    0.5705    3.0855 H       1  UNL1        0.0235
     56 H           5.1622   -2.8729   -0.0188 H       1  UNL1        0.0290
     57 H           3.7525   -2.1942   -0.7881 H       1  UNL1        0.0290
     58 H           6.4311   -0.7863   -0.2842 H       1  UNL1        0.0593
     59 H           0.2605   -2.7534   -0.8476 H       1  UNL1        0.2098
     60 H          -4.7532    0.9219   -1.5285 H       1  UNL1        0.0273
     61 H          -4.3045   -0.5996   -2.2883 H       1  UNL1        0.0273
     62 H          -2.8322   -2.4108   -0.6841 H       1  UNL1        0.0233
     63 H          -2.8709   -1.9683    1.0531 H       1  UNL1        0.0233
     64 H          -4.3229   -2.3494    0.2437 H       1  UNL1        0.0233
     65 H           6.2845   -2.2348   -2.0451 H       1  UNL1        0.2098
     66 H          -6.6889   -0.5541   -1.7676 H       1  UNL1        0.0378
     67 H          -5.9340   -1.8321   -0.8400 H       1  UNL1        0.0378
     68 H          -7.6780   -0.5578    1.8038 H       1  UNL1        0.2951
@<TRIPOS>BOND
     1     1    11    1
     2     1    59    1
     3     2    24    1
     4     2    65    1
     5     3    28    1
     6     3    68    1
     7     4    28    2
     8     5     6    1
     9     5    10    1
    10     5    11    1
    11     5    19    1
    12     6     7    1
    13     6    14    1
    14     6    29    1
    15     7     8    1
    16     7    15    1
    17     7    30    1
    18     8     9    1
    19     8    12    1
    20     8    31    1
    21     9    13    1
    22     9    18    1
    23     9    22    1
    24    10    16    1
    25    10    20    1
    26    10    32    1
    27    11    12    1
    28    11    33    1
    29    12    34    1
    30    12    35    1
    31    13    17    1
    32    13    21    1
    33    13    36    1
    34    14    16    1
    35    14    37    1
    36    14    38    1
    37    15    17    1
    38    15    39    1
    39    15    40    1
    40    16    41    1
    41    16    42    1
    42    17    43    1
    43    17    44    1
    44    18    23    1
    45    18    45    1
    46    18    46    1
    47    19    47    1
    48    19    48    1
    49    19    49    1
    50    20    25    1
    51    20    26    1
    52    20    50    1
    53    21    24    1
    54    21    51    1
    55    21    52    1
    56    22    53    1
    57    22    54    1
    58    22    55    1
    59    23    24    1
    60    23    56    1
    61    23    57    1
    62    24    58    1
    63    25    27    1
    64    25    60    1
    65    25    61    1
    66    26    62    1
    67    26    63    1
    68    26    64    1
    69    27    28    1
    70    27    66    1
    71    27    67    1
