@<TRIPOS>MOLECULE
dhea
 49 52 0 0 0
SMALL
GASTEIGER

@<TRIPOS>ATOM
      1 O           5.0456    1.0387   -0.6602 O.2     1  UNL1       -0.2968
      2 O          -5.8779   -0.0883   -0.2858 O.3     1  UNL1       -0.3915
      3 C          -0.1476    0.4493   -0.2872 C.3     1  UNL1       -0.0285
      4 C           0.6423   -0.7776    0.2602 C.3     1  UNL1       -0.0303
      5 C           2.0784   -0.7229   -0.2660 C.3     1  UNL1       -0.0252
      6 C           2.8037    0.5675    0.1592 C.3     1  UNL1        0.0293
      7 C          -1.6316    0.4701    0.2571 C.3     1  UNL1       -0.0078
      8 C           0.6160    1.7924   -0.1066 C.3     1  UNL1       -0.0483
      9 C           2.0973    1.7357   -0.5206 C.3     1  UNL1       -0.0404
     10 C           3.0550   -1.8383    0.0904 C.3     1  UNL1       -0.0424
     11 C          -0.0485   -2.0818   -0.1630 C.3     1  UNL1       -0.0311
     12 C          -2.2596   -0.9288    0.1789 C.2     1  UNL1       -0.0648
     13 C          -2.4606    1.4525   -0.6230 C.3     1  UNL1       -0.0413
     14 C           4.1893    0.2195   -0.3547 C.2     1  UNL1        0.1395
     15 C           4.3969   -1.2849   -0.4117 C.3     1  UNL1        0.0067
     16 C          -1.5366   -2.0444   -0.0222 C.2     1  UNL1       -0.0839
     17 C           2.9394    0.7926    1.6760 C.3     1  UNL1       -0.0526
     18 C          -1.6843    0.9351    1.7322 C.3     1  UNL1       -0.0556
     19 C          -3.7602   -1.0207    0.3328 C.3     1  UNL1       -0.0051
     20 C          -3.9702    1.3785   -0.3990 C.3     1  UNL1       -0.0258
     21 C          -4.4868   -0.0443   -0.5868 C.3     1  UNL1        0.0590
     22 H          -0.2108    0.3002   -1.3778 H       1  UNL1        0.0312
     23 H           0.6565   -0.7470    1.3557 H       1  UNL1        0.0310
     24 H           2.0088   -0.7343   -1.3680 H       1  UNL1        0.0313
     25 H           0.5695    2.1202    0.9360 H       1  UNL1        0.0269
     26 H           0.1289    2.5768   -0.6968 H       1  UNL1        0.0269
     27 H           2.1666    1.6416   -1.6122 H       1  UNL1        0.0275
     28 H           2.5873    2.6843   -0.2692 H       1  UNL1        0.0275
     29 H           2.8111   -2.7853   -0.4011 H       1  UNL1        0.0272
     30 H           3.0835   -2.0208    1.1702 H       1  UNL1        0.0272
     31 H           0.3417   -2.9066    0.4456 H       1  UNL1        0.0310
     32 H           0.1845   -2.3214   -1.2080 H       1  UNL1        0.0310
     33 H          -2.2683    1.2456   -1.6847 H       1  UNL1        0.0274
     34 H          -2.1390    2.4861   -0.4475 H       1  UNL1        0.0274
     35 H           4.5794   -1.5770   -1.4498 H       1  UNL1        0.0342
     36 H           5.2246   -1.5917    0.2312 H       1  UNL1        0.0342
     37 H          -2.0410   -3.0054   -0.0889 H       1  UNL1        0.0572
     38 H           1.9738    0.8549    2.1846 H       1  UNL1        0.0239
     39 H           3.5163    0.0004    2.1655 H       1  UNL1        0.0239
     40 H           3.4742    1.7297    1.8731 H       1  UNL1        0.0239
     41 H          -2.6908    0.8591    2.1570 H       1  UNL1        0.0238
     42 H          -1.0269    0.3366    2.3712 H       1  UNL1        0.0238
     43 H          -1.3903    1.9844    1.8367 H       1  UNL1        0.0238
     44 H          -4.1237   -2.0366    0.1298 H       1  UNL1        0.0335
     45 H          -4.0360   -0.8273    1.3772 H       1  UNL1        0.0335
     46 H          -4.2323    1.7476    0.6002 H       1  UNL1        0.0290
     47 H          -4.4832    2.0491   -1.0994 H       1  UNL1        0.0290
     48 H          -4.3616   -0.3443   -1.6344 H       1  UNL1        0.0596
     49 H          -6.1817   -1.0003   -0.4328 H       1  UNL1        0.2098
@<TRIPOS>BOND
     1     1    14    2
     2     2    21    1
     3     2    49    1
     4     3     4    1
     5     3     7    1
     6     3     8    1
     7     3    22    1
     8     4     5    1
     9     4    11    1
    10     4    23    1
    11     5     6    1
    12     5    10    1
    13     5    24    1
    14     6     9    1
    15     6    14    1
    16     6    17    1
    17     7    12    1
    18     7    13    1
    19     7    18    1
    20     8     9    1
    21     8    25    1
    22     8    26    1
    23     9    27    1
    24     9    28    1
    25    10    15    1
    26    10    29    1
    27    10    30    1
    28    11    16    1
    29    11    31    1
    30    11    32    1
    31    12    16    2
    32    12    19    1
    33    13    20    1
    34    13    33    1
    35    13    34    1
    36    14    15    1
    37    15    35    1
    38    15    36    1
    39    16    37    1
    40    17    38    1
    41    17    39    1
    42    17    40    1
    43    18    41    1
    44    18    42    1
    45    18    43    1
    46    19    21    1
    47    19    44    1
    48    19    45    1
    49    20    21    1
    50    20    46    1
    51    20    47    1
    52    21    48    1
