@<TRIPOS>MOLECULE
dihydrotestosterone
 51 54 0 0 0
SMALL
GASTEIGER

@<TRIPOS>ATOM
      1 O          -5.1851   -1.1437   -0.0115 O.3     1  UNL1       -0.3912
      2 O           5.6720   -0.3026    0.3641 O.2     1  UNL1       -0.2974
      3 C          -0.6336    0.8071    0.1696 C.3     1  UNL1       -0.0343
      4 C           0.1759   -0.4294   -0.3329 C.3     1  UNL1       -0.0322
      5 C          -2.0645    0.7062   -0.3711 C.3     1  UNL1       -0.0301
      6 C          -2.7887   -0.5734    0.0902 C.3     1  UNL1       -0.0030
      7 C           1.6811   -0.3879    0.1276 C.3     1  UNL1       -0.0254
      8 C           2.2990    0.9793   -0.3067 C.3     1  UNL1       -0.0287
      9 C          -0.5502   -1.7671   -0.0190 C.3     1  UNL1       -0.0489
     10 C          -2.0231   -1.7809   -0.4667 C.3     1  UNL1       -0.0447
     11 C           0.0364    2.1138   -0.2722 C.3     1  UNL1       -0.0494
     12 C          -3.0626    1.8156   -0.0496 C.3     1  UNL1       -0.0470
     13 C          -4.1655   -0.3289   -0.5571 C.3     1  UNL1        0.0609
     14 C           1.4899    2.1892    0.1789 C.3     1  UNL1       -0.0491
     15 C          -4.4352    1.1679   -0.3076 C.3     1  UNL1       -0.0261
     16 C           2.4789   -1.5378   -0.5668 C.3     1  UNL1       -0.0404
     17 C          -2.9342   -0.7150    1.6270 C.3     1  UNL1       -0.0569
     18 C           1.7912   -0.5847    1.6633 C.3     1  UNL1       -0.0590
     19 C           3.7667    1.1239    0.1226 C.3     1  UNL1        0.0092
     20 C           3.9101   -1.1973   -0.9830 C.3     1  UNL1        0.0063
     21 C           4.5414   -0.1544   -0.0990 C.2     1  UNL1        0.1337
     22 H          -0.6634    0.8074    1.2645 H       1  UNL1        0.0306
     23 H           0.1911   -0.3567   -1.4325 H       1  UNL1        0.0309
     24 H          -1.9848    0.6816   -1.4713 H       1  UNL1        0.0310
     25 H           2.2794    1.0093   -1.4072 H       1  UNL1        0.0310
     26 H          -0.5083   -1.9841    1.0521 H       1  UNL1        0.0268
     27 H          -0.0386   -2.5979   -0.5175 H       1  UNL1        0.0268
     28 H          -2.0542   -1.7741   -1.5640 H       1  UNL1        0.0271
     29 H          -2.4962   -2.7183   -0.1504 H       1  UNL1        0.0271
     30 H          -0.5050    2.9737    0.1392 H       1  UNL1        0.0268
     31 H          -0.0076    2.2064   -1.3650 H       1  UNL1        0.0268
     32 H          -2.9140    2.6977   -0.6808 H       1  UNL1        0.0269
     33 H          -2.9822    2.1371    0.9948 H       1  UNL1        0.0269
     34 H          -4.1278   -0.5190   -1.6366 H       1  UNL1        0.0599
     35 H           1.9349    3.1115   -0.2148 H       1  UNL1        0.0268
     36 H           1.5313    2.2693    1.2715 H       1  UNL1        0.0268
     37 H          -5.1102    1.3402    0.5380 H       1  UNL1        0.0290
     38 H          -4.9133    1.6119   -1.1882 H       1  UNL1        0.0290
     39 H           1.9614   -1.8644   -1.4781 H       1  UNL1        0.0275
     40 H           2.4993   -2.4215    0.0845 H       1  UNL1        0.0275
     41 H          -1.9708   -0.7168    2.1437 H       1  UNL1        0.0236
     42 H          -3.5256    0.0933    2.0687 H       1  UNL1        0.0236
     43 H          -3.4310   -1.6579    1.8835 H       1  UNL1        0.0236
     44 H           2.8308   -0.5756    2.0051 H       1  UNL1        0.0235
     45 H           1.2610    0.1909    2.2221 H       1  UNL1        0.0235
     46 H           1.3830   -1.5503    1.9776 H       1  UNL1        0.0235
     47 H           3.8408    1.3840    1.1845 H       1  UNL1        0.0344
     48 H           4.2469    1.9192   -0.4582 H       1  UNL1        0.0344
     49 H           3.9252   -0.8075   -2.0078 H       1  UNL1        0.0342
     50 H           4.5254   -2.1036   -0.9745 H       1  UNL1        0.0342
     51 H          -5.3936   -0.8295    0.8839 H       1  UNL1        0.2098
@<TRIPOS>BOND
     1     1    13    1
     2     1    51    1
     3     2    21    2
     4     3     4    1
     5     3     5    1
     6     3    11    1
     7     3    22    1
     8     4     7    1
     9     4     9    1
    10     4    23    1
    11     5     6    1
    12     5    12    1
    13     5    24    1
    14     6    10    1
    15     6    13    1
    16     6    17    1
    17     7     8    1
    18     7    16    1
    19     7    18    1
    20     8    14    1
    21     8    19    1
    22     8    25    1
    23     9    10    1
    24     9    26    1
    25     9    27    1
    26    10    28    1
    27    10    29    1
    28    11    14    1
    29    11    30    1
    30    11    31    1
    31    12    15    1
    32    12    32    1
    33    12    33    1
    34    13    15    1
    35    13    34    1
    36    14    35    1
    37    14    36    1
    38    15    37    1
    39    15    38    1
    40    16    20    1
    41    16    39    1
    42    16    40    1
    43    17    41    1
    44    17    42    1
    45    17    43    1
    46    18    44    1
    47    18    45    1
    48    18    46    1
    49    19    21    1
    50    19    47    1
    51    19    48    1
    52    20    21    1
    53    20    49    1
    54    20    50    1
