@<TRIPOS>MOLECULE
ergosterol
 73 76 0 0 0
SMALL
GASTEIGER

@<TRIPOS>ATOM
      1 O           8.2914   -0.1008    0.2586 O.3     1  UNL1       -0.3915
      2 C          -0.4090    0.3344   -0.0998 C.3     1  UNL1       -0.0222
      3 C           0.3535   -0.8635    0.5002 C.3     1  UNL1       -0.0136
      4 C          -1.8282    0.0418    0.4455 C.3     1  UNL1       -0.0291
      5 C           2.5562    0.4475    0.4290 C.3     1  UNL1       -0.0102
      6 C           0.2259    1.6164    0.4647 C.3     1  UNL1       -0.0462
      7 C           1.8187   -0.8657    0.1505 C.2     1  UNL1       -0.0620
      8 C          -0.5546   -2.0553    0.1835 C.3     1  UNL1       -0.0457
      9 C           4.0347    0.5101   -0.1705 C.3     1  UNL1       -0.0041
     10 C          -1.9812   -1.4868    0.2834 C.3     1  UNL1       -0.0486
     11 C           1.7120    1.7125    0.0863 C.3     1  UNL1       -0.0452
     12 C          -0.3888    0.3554   -1.6484 C.3     1  UNL1       -0.0587
     13 C          -2.9707    0.8223   -0.1888 C.3     1  UNL1       -0.0224
     14 C           4.6685   -0.8829   -0.2857 C.2     1  UNL1       -0.0607
     15 C           4.8864    1.4070    0.7756 C.3     1  UNL1       -0.0410
     16 C           2.4832   -1.9687   -0.2258 C.2     1  UNL1       -0.0620
     17 C           4.0525    1.1093   -1.5993 C.3     1  UNL1       -0.0553
     18 C           3.9177   -1.9959   -0.3222 C.2     1  UNL1       -0.0619
     19 C           6.1689   -0.9698   -0.4297 C.3     1  UNL1       -0.0048
     20 C           6.3885    1.3556    0.5066 C.3     1  UNL1       -0.0258
     21 C           6.9018   -0.0798    0.5690 C.3     1  UNL1        0.0590
     22 C          -2.7707    2.3282   -0.0024 C.3     1  UNL1       -0.0587
     23 C          -4.2910    0.3995    0.4085 C.2     1  UNL1       -0.0846
     24 C          -5.2921   -0.1431   -0.3017 C.2     1  UNL1       -0.0846
     25 C          -6.6103   -0.5793    0.2995 C.3     1  UNL1       -0.0234
     26 C          -7.8031    0.1972   -0.3278 C.3     1  UNL1       -0.0407
     27 C          -6.7372   -2.0964    0.1178 C.3     1  UNL1       -0.0587
     28 C          -7.6752    1.7126   -0.1314 C.3     1  UNL1       -0.0621
     29 C          -9.1479   -0.2619    0.2548 C.3     1  UNL1       -0.0621
     30 H           0.3348   -0.7649    1.5993 H       1  UNL1        0.0351
     31 H          -1.8279    0.2473    1.5280 H       1  UNL1        0.0312
     32 H           2.6502    0.4534    1.5268 H       1  UNL1        0.0354
     33 H           0.1366    1.6385    1.5584 H       1  UNL1        0.0271
     34 H          -0.2473    2.5254    0.0945 H       1  UNL1        0.0271
     35 H          -0.4042   -2.8808    0.8873 H       1  UNL1        0.0271
     36 H          -0.3786   -2.4451   -0.8258 H       1  UNL1        0.0271
     37 H          -2.5435   -1.7583   -0.6175 H       1  UNL1        0.0268
     38 H          -2.5097   -1.9158    1.1423 H       1  UNL1        0.0268
     39 H           1.7539    1.9309   -0.9847 H       1  UNL1        0.0271
     40 H           2.1464    2.5837    0.5913 H       1  UNL1        0.0271
     41 H           0.6254    0.2716   -2.0512 H       1  UNL1        0.0235
     42 H          -0.9627   -0.4693   -2.0836 H       1  UNL1        0.0235
     43 H          -0.8101    1.2866   -2.0405 H       1  UNL1        0.0235
     44 H          -3.0080    0.6256   -1.2678 H       1  UNL1        0.0343
     45 H           4.7287    1.0970    1.8176 H       1  UNL1        0.0275
     46 H           4.5517    2.4496    0.7122 H       1  UNL1        0.0275
     47 H           1.9761   -2.9168   -0.3689 H       1  UNL1        0.0617
     48 H           5.0341    1.0233   -2.0782 H       1  UNL1        0.0238
     49 H           3.3332    0.6011   -2.2521 H       1  UNL1        0.0238
     50 H           3.8148    2.1786   -1.5934 H       1  UNL1        0.0238
     51 H           4.3751   -2.9743   -0.4334 H       1  UNL1        0.0617
     52 H           6.5239   -2.0018   -0.3101 H       1  UNL1        0.0335
     53 H           6.4533   -0.6888   -1.4520 H       1  UNL1        0.0335
     54 H           6.6262    1.8031   -0.4662 H       1  UNL1        0.0290
     55 H           6.9178    1.9682    1.2468 H       1  UNL1        0.0290
     56 H           6.7793   -0.4804    1.5828 H       1  UNL1        0.0596
     57 H          -2.4273    2.5817    1.0060 H       1  UNL1        0.0235
     58 H          -3.7157    2.8639   -0.1600 H       1  UNL1        0.0235
     59 H          -2.0829    2.7375   -0.7457 H       1  UNL1        0.0235
     60 H          -4.4188    0.5488    1.4785 H       1  UNL1        0.0572
     61 H          -5.1664   -0.2931   -1.3718 H       1  UNL1        0.0572
     62 H           8.7447    0.4661    0.9058 H       1  UNL1        0.2098
     63 H          -6.5990   -0.3781    1.3796 H       1  UNL1        0.0343
     64 H          -7.8265    0.0035   -1.4089 H       1  UNL1        0.0301
     65 H          -7.5775   -2.4970    0.6932 H       1  UNL1        0.0235
     66 H          -5.8366   -2.6127    0.4708 H       1  UNL1        0.0235
     67 H          -6.8860   -2.3628   -0.9347 H       1  UNL1        0.0235
     68 H          -8.5440    2.2341   -0.5477 H       1  UNL1        0.0233
     69 H          -7.6056    1.9688    0.9314 H       1  UNL1        0.0233
     70 H          -6.7900    2.1108   -0.6371 H       1  UNL1        0.0233
     71 H          -9.1572   -0.1749    1.3464 H       1  UNL1        0.0233
     72 H          -9.9705    0.3451   -0.1394 H       1  UNL1        0.0233
     73 H          -9.3651   -1.3009   -0.0107 H       1  UNL1        0.0233
@<TRIPOS>BOND
     1     1    21    1
     2     1    62    1
     3     2     3    1
     4     2     4    1
     5     2     6    1
     6     2    12    1
     7     3     7    1
     8     3     8    1
     9     3    30    1
    10     4    10    1
    11     4    13    1
    12     4    31    1
    13     5     7    1
    14     5     9    1
    15     5    11    1
    16     5    32    1
    17     6    11    1
    18     6    33    1
    19     6    34    1
    20     7    16    2
    21     8    10    1
    22     8    35    1
    23     8    36    1
    24     9    14    1
    25     9    15    1
    26     9    17    1
    27    10    37    1
    28    10    38    1
    29    11    39    1
    30    11    40    1
    31    12    41    1
    32    12    42    1
    33    12    43    1
    34    13    22    1
    35    13    23    1
    36    13    44    1
    37    14    18    2
    38    14    19    1
    39    15    20    1
    40    15    45    1
    41    15    46    1
    42    16    18    1
    43    16    47    1
    44    17    48    1
    45    17    49    1
    46    17    50    1
    47    18    51    1
    48    19    21    1
    49    19    52    1
    50    19    53    1
    51    20    21    1
    52    20    54    1
    53    20    55    1
    54    21    56    1
    55    22    57    1
    56    22    58    1
    57    22    59    1
    58    23    24    2
    59    23    60    1
    60    24    25    1
    61    24    61    1
    62    25    26    1
    63    25    27    1
    64    25    63    1
    65    26    28    1
    66    26    29    1
    67    26    64    1
    68    27    65    1
    69    27    66    1
    70    27    67    1
    71    28    68    1
    72    28    69    1
    73    28    70    1
    74    29    71    1
    75    29    72    1
    76    29    73    1
