@<TRIPOS>MOLECULE
estradiol
 44 47 0 0 0
SMALL
GASTEIGER

@<TRIPOS>ATOM
      1 O           5.0614    1.1501    0.2674 O.3     1  UNL1       -0.3912
      2 O          -5.8575    0.1485    0.4388 O.3     1  UNL1       -0.5068
      3 C           2.6642    0.5840    0.1481 C.3     1  UNL1       -0.0030
      4 C           1.9839   -0.6954   -0.3789 C.3     1  UNL1       -0.0298
      5 C           0.5151   -0.7803    0.0353 C.3     1  UNL1       -0.0305
      6 C          -0.2462    0.4358   -0.5745 C.3     1  UNL1       -0.0125
      7 C           4.0948    0.3353   -0.3668 C.3     1  UNL1        0.0609
      8 C           1.9554    1.7926   -0.4751 C.3     1  UNL1       -0.0445
      9 C           2.9440   -1.8059    0.0383 C.3     1  UNL1       -0.0470
     10 C           0.4403    1.7758   -0.1954 C.3     1  UNL1       -0.0454
     11 C           4.3365   -1.1612   -0.0876 C.3     1  UNL1       -0.0261
     12 C          -0.1545   -2.0728   -0.4353 C.3     1  UNL1       -0.0454
     13 C           2.6653    0.7312    1.6914 C.3     1  UNL1       -0.0569
     14 C          -1.7395    0.3642   -0.2672 C.ar    1  UNL1       -0.0406
     15 C          -1.5687   -2.1589    0.1309 C.3     1  UNL1       -0.0270
     16 C          -2.3535   -0.8743    0.0218 C.ar    1  UNL1       -0.0405
     17 C          -2.5552    1.5065   -0.3511 C.ar    1  UNL1       -0.0546
     18 C          -3.7366   -0.9297    0.2693 C.ar    1  UNL1       -0.0167
     19 C          -3.9294    1.4358   -0.1121 C.ar    1  UNL1       -0.0199
     20 C          -4.5198    0.2188    0.2029 C.ar    1  UNL1        0.1171
     21 H           2.0040   -0.6750   -1.4816 H       1  UNL1        0.0310
     22 H           0.4403   -0.7504    1.1300 H       1  UNL1        0.0310
     23 H          -0.1782    0.3544   -1.6706 H       1  UNL1        0.0352
     24 H           4.1534    0.5204   -1.4469 H       1  UNL1        0.0599
     25 H           2.1053    1.7938   -1.5627 H       1  UNL1        0.0272
     26 H           2.3881    2.7297   -0.1046 H       1  UNL1        0.0272
     27 H           2.8553   -2.6878   -0.6042 H       1  UNL1        0.0269
     28 H           2.7631   -2.1275    1.0699 H       1  UNL1        0.0269
     29 H           0.2521    2.0029    0.8608 H       1  UNL1        0.0271
     30 H           0.0007    2.6014   -0.7671 H       1  UNL1        0.0271
     31 H           4.9234   -1.3215    0.8238 H       1  UNL1        0.0290
     32 H           4.9008   -1.6102   -0.9125 H       1  UNL1        0.0290
     33 H           0.4101   -2.9540   -0.1110 H       1  UNL1        0.0271
     34 H          -0.1885   -2.1013   -1.5321 H       1  UNL1        0.0271
     35 H           3.1676    1.6589    1.9896 H       1  UNL1        0.0236
     36 H           1.6577    0.7696    2.1135 H       1  UNL1        0.0236
     37 H           3.1880   -0.0912    2.1900 H       1  UNL1        0.0236
     38 H          -1.5119   -2.4285    1.1934 H       1  UNL1        0.0313
     39 H          -2.1033   -2.9658   -0.3847 H       1  UNL1        0.0313
     40 H           5.9356    0.8680   -0.0516 H       1  UNL1        0.2098
     41 H          -2.1405    2.4755   -0.6118 H       1  UNL1        0.0622
     42 H          -4.2044   -1.8813    0.5136 H       1  UNL1        0.0657
     43 H          -4.5261    2.3416   -0.1803 H       1  UNL1        0.0654
     44 H          -6.2408    1.0380    0.3488 H       1  UNL1        0.2921
@<TRIPOS>BOND
     1     1     7    1
     2     1    40    1
     3     2    20    1
     4     2    44    1
     5     3     4    1
     6     3     7    1
     7     3     8    1
     8     3    13    1
     9     4     5    1
    10     4     9    1
    11     4    21    1
    12     5     6    1
    13     5    12    1
    14     5    22    1
    15     6    10    1
    16     6    14    1
    17     6    23    1
    18     7    11    1
    19     7    24    1
    20     8    10    1
    21     8    25    1
    22     8    26    1
    23     9    11    1
    24     9    27    1
    25     9    28    1
    26    10    29    1
    27    10    30    1
    28    11    31    1
    29    11    32    1
    30    12    15    1
    31    12    33    1
    32    12    34    1
    33    13    35    1
    34    13    36    1
    35    13    37    1
    36    14    16   ar
    37    14    17   ar
    38    15    16    1
    39    15    38    1
    40    15    39    1
    41    16    18   ar
    42    17    19   ar
    43    17    41    1
    44    18    20   ar
    45    18    42    1
    46    19    20   ar
    47    19    43    1
