@<TRIPOS>MOLECULE
estrone
 42 45 0 0 0
SMALL
GASTEIGER

@<TRIPOS>ATOM
      1 O          -4.9401   -1.1744   -0.2620 O.2     1  UNL1       -0.2968
      2 O           5.8571   -0.1348    0.3533 O.3     1  UNL1       -0.5068
      3 C          -1.9998    0.6758   -0.3013 C.3     1  UNL1       -0.0252
      4 C          -2.6433   -0.5947    0.2927 C.3     1  UNL1        0.0293
      5 C          -0.5246    0.7795    0.0820 C.3     1  UNL1       -0.0302
      6 C           0.2261   -0.4418   -0.5345 C.3     1  UNL1       -0.0124
      7 C          -1.9753   -1.8030   -0.3543 C.3     1  UNL1       -0.0401
      8 C          -2.9678    1.7930    0.0707 C.3     1  UNL1       -0.0424
      9 C          -0.4498   -1.7829   -0.1358 C.3     1  UNL1       -0.0450
     10 C           0.1301    2.0683   -0.4172 C.3     1  UNL1       -0.0454
     11 C          -4.0819   -0.3164   -0.1039 C.2     1  UNL1        0.1395
     12 C          -4.3372    1.1746   -0.2489 C.3     1  UNL1        0.0067
     13 C          -2.6263   -0.7077    1.8287 C.3     1  UNL1       -0.0526
     14 C           1.7253   -0.3650   -0.2600 C.ar    1  UNL1       -0.0406
     15 C           1.5584    2.1624    0.1119 C.3     1  UNL1       -0.0270
     16 C           2.3432    0.8780   -0.0003 C.ar    1  UNL1       -0.0405
     17 C           2.5405   -1.5076   -0.3458 C.ar    1  UNL1       -0.0546
     18 C           3.7314    0.9386    0.2152 C.ar    1  UNL1       -0.0167
     19 C           3.9195   -1.4320   -0.1378 C.ar    1  UNL1       -0.0199
     20 C           4.5147   -0.2099    0.1471 C.ar    1  UNL1        0.1171
     21 H          -2.0379    0.6094   -1.4026 H       1  UNL1        0.0313
     22 H          -0.4260    0.7606    1.1750 H       1  UNL1        0.0310
     23 H           0.1354   -0.3677   -1.6295 H       1  UNL1        0.0352
     24 H          -2.1837   -1.8168   -1.4323 H       1  UNL1        0.0275
     25 H          -2.3919   -2.7366    0.0430 H       1  UNL1        0.0275
     26 H          -2.8045    2.7041   -0.5132 H       1  UNL1        0.0272
     27 H          -2.8924    2.0584    1.1307 H       1  UNL1        0.0272
     28 H          -0.2251   -2.0095    0.9137 H       1  UNL1        0.0271
     29 H          -0.0296   -2.6075   -0.7233 H       1  UNL1        0.0271
     30 H          -0.4271    2.9514   -0.0857 H       1  UNL1        0.0271
     31 H           0.1360    2.0872   -1.5146 H       1  UNL1        0.0271
     32 H          -4.6322    1.3836   -1.2812 H       1  UNL1        0.0342
     33 H          -5.1042    1.5115    0.4517 H       1  UNL1        0.0342
     34 H          -1.6147   -0.7587    2.2398 H       1  UNL1        0.0239
     35 H          -3.1375    0.1296    2.3154 H       1  UNL1        0.0239
     36 H          -3.1521   -1.6164    2.1467 H       1  UNL1        0.0239
     37 H           1.5278    2.4451    1.1721 H       1  UNL1        0.0313
     38 H           2.0786    2.9638   -0.4268 H       1  UNL1        0.0313
     39 H           2.1213   -2.4807   -0.5836 H       1  UNL1        0.0622
     40 H           4.1964    1.8973    0.4363 H       1  UNL1        0.0657
     41 H           4.5218   -2.3341   -0.2046 H       1  UNL1        0.0654
     42 H           6.0971    0.7897    0.5371 H       1  UNL1        0.2921
@<TRIPOS>BOND
     1     1    11    2
     2     2    20    1
     3     2    42    1
     4     3     4    1
     5     3     5    1
     6     3     8    1
     7     3    21    1
     8     4     7    1
     9     4    11    1
    10     4    13    1
    11     5     6    1
    12     5    10    1
    13     5    22    1
    14     6     9    1
    15     6    14    1
    16     6    23    1
    17     7     9    1
    18     7    24    1
    19     7    25    1
    20     8    12    1
    21     8    26    1
    22     8    27    1
    23     9    28    1
    24     9    29    1
    25    10    15    1
    26    10    30    1
    27    10    31    1
    28    11    12    1
    29    12    32    1
    30    12    33    1
    31    13    34    1
    32    13    35    1
    33    13    36    1
    34    14    16   ar
    35    14    17   ar
    36    15    16    1
    37    15    37    1
    38    15    38    1
    39    16    18   ar
    40    17    19   ar
    41    17    39    1
    42    18    20   ar
    43    18    40    1
    44    19    20   ar
    45    19    41    1
