@<TRIPOS>MOLECULE
glycocholic_acid
 76 79 0 0 0
SMALL
GASTEIGER

@<TRIPOS>ATOM
      1 O          -0.5355    1.7195    0.8660 O.3     1  UNL1       -0.3912
      2 O          -2.9114   -0.5866   -2.5428 O.3     1  UNL1       -0.3915
      3 O          -6.2073    2.9778   -1.5569 O.3     1  UNL1       -0.3918
      4 O           5.4919    1.3980   -1.8891 O.2     1  UNL1       -0.2758
      5 O           7.5401   -1.0986   -0.3358 O.3     1  UNL1       -0.4795
      6 O           9.5645   -0.1153   -0.6229 O.2     1  UNL1       -0.2492
      7 N           6.2853    1.1096    0.2758 N.am    1  UNL1       -0.3048
      8 C          -0.1884   -0.7199    0.8487 C.3     1  UNL1        0.0001
      9 C          -0.9627   -0.9560   -0.4692 C.3     1  UNL1       -0.0276
     10 C          -2.4527   -1.2596   -0.2474 C.3     1  UNL1       -0.0081
     11 C          -3.1098   -0.0534    0.5049 C.3     1  UNL1       -0.0276
     12 C          -4.6461   -0.2984    0.7690 C.3     1  UNL1       -0.0257
     13 C           1.2350   -0.5335    0.2604 C.3     1  UNL1       -0.0304
     14 C          -0.7899    0.5038    1.5692 C.3     1  UNL1        0.0614
     15 C          -2.3106    0.3462    1.7812 C.3     1  UNL1       -0.0226
     16 C          -5.3644   -0.5904   -0.5907 C.3     1  UNL1       -0.0307
     17 C          -0.1119   -1.9881   -1.2082 C.3     1  UNL1       -0.0490
     18 C          -3.1841   -1.5852   -1.5642 C.3     1  UNL1        0.0589
     19 C           1.3349   -1.6361   -0.8188 C.3     1  UNL1       -0.0491
     20 C          -4.6955   -1.7386   -1.3731 C.3     1  UNL1       -0.0232
     21 C          -5.3398    0.9201    1.4474 C.3     1  UNL1       -0.0448
     22 C          -0.2295   -1.9351    1.8156 C.3     1  UNL1       -0.0567
     23 C           2.3882   -0.5694    1.2530 C.3     1  UNL1       -0.0400
     24 C          -5.5189    0.6680   -1.4710 C.3     1  UNL1       -0.0234
     25 C          -4.8670   -1.4974    1.7300 C.3     1  UNL1       -0.0590
     26 C          -5.4483    2.1495    0.5559 C.3     1  UNL1       -0.0263
     27 C          -6.1927    1.8188   -0.7302 C.3     1  UNL1        0.0555
     28 C           3.7615   -0.3721    0.5794 C.3     1  UNL1       -0.0419
     29 C           2.1898    0.5070    2.3264 C.3     1  UNL1       -0.0621
     30 C           3.9136    0.9895   -0.0993 C.3     1  UNL1        0.0242
     31 C           5.2973    1.1883   -0.6949 C.2     1  UNL1        0.2135
     32 C           7.6919    1.2693   -0.0144 C.3     1  UNL1        0.1088
     33 C           8.3723   -0.0317   -0.3542 C.2     1  UNL1        0.3221
     34 H          -0.9012   -0.0306   -1.0629 H       1  UNL1        0.0310
     35 H          -2.5326   -2.1541    0.3781 H       1  UNL1        0.0331
     36 H          -3.0269    0.8198   -0.1541 H       1  UNL1        0.0310
     37 H           1.2527    0.4283   -0.2690 H       1  UNL1        0.0310
     38 H          -0.3642    0.6322    2.5654 H       1  UNL1        0.0599
     39 H          -2.4768   -0.3959    2.5679 H       1  UNL1        0.0293
     40 H          -2.6980    1.2991    2.1588 H       1  UNL1        0.0293
     41 H          -6.3883   -0.9239   -0.3647 H       1  UNL1        0.0308
     42 H          -0.3548   -3.0093   -0.8940 H       1  UNL1        0.0268
     43 H          -0.2543   -1.9337   -2.2923 H       1  UNL1        0.0268
     44 H          -2.7973   -2.5252   -1.9738 H       1  UNL1        0.0596
     45 H           1.8944   -1.2746   -1.6887 H       1  UNL1        0.0268
     46 H           1.8450   -2.5335   -0.4502 H       1  UNL1        0.0268
     47 H          -4.8855   -2.6814   -0.8459 H       1  UNL1        0.0293
     48 H          -5.1790   -1.8317   -2.3538 H       1  UNL1        0.0293
     49 H          -4.8395    1.1898    2.3836 H       1  UNL1        0.0271
     50 H          -6.3599    0.6323    1.7396 H       1  UNL1        0.0271
     51 H           0.2938   -1.7196    2.7524 H       1  UNL1        0.0236
     52 H          -1.2482   -2.2161    2.0954 H       1  UNL1        0.0236
     53 H           0.2354   -2.8286    1.3876 H       1  UNL1        0.0236
     54 H           2.4293   -1.5458    1.7517 H       1  UNL1        0.0301
     55 H          -4.5633    1.0321   -1.8522 H       1  UNL1        0.0293
     56 H          -6.1090    0.4267   -2.3647 H       1  UNL1        0.0293
     57 H          -4.4807   -1.2870    2.7325 H       1  UNL1        0.0235
     58 H          -4.3968   -2.4199    1.3823 H       1  UNL1        0.0235
     59 H          -5.9366   -1.7121    1.8431 H       1  UNL1        0.0235
     60 H          -4.4565    2.5598    0.3312 H       1  UNL1        0.0290
     61 H          -5.9780    2.9474    1.0912 H       1  UNL1        0.0290
     62 H          -7.2333    1.5532   -0.5092 H       1  UNL1        0.0593
     63 H          -0.9156    2.4476    1.3861 H       1  UNL1        0.2098
     64 H           3.9406   -1.1649   -0.1572 H       1  UNL1        0.0272
     65 H           4.5355   -0.5127    1.3435 H       1  UNL1        0.0272
     66 H          -2.7245    0.2612   -2.1125 H       1  UNL1        0.2098
     67 H           3.1364    0.7070    2.8440 H       1  UNL1        0.0233
     68 H           1.8431    1.4608    1.9202 H       1  UNL1        0.0233
     69 H           1.5139    0.1682    3.1136 H       1  UNL1        0.0233
     70 H          -6.6572    3.6849   -1.0638 H       1  UNL1        0.2098
     71 H           3.7437    1.8137    0.6017 H       1  UNL1        0.0358
     72 H           3.1972    1.1006   -0.9196 H       1  UNL1        0.0358
     73 H           6.0259    0.9731    1.2477 H       1  UNL1        0.1493
     74 H           8.1623    1.6866    0.8803 H       1  UNL1        0.0577
     75 H           7.8094    1.9551   -0.8586 H       1  UNL1        0.0577
     76 H           8.0059   -1.9320   -0.5610 H       1  UNL1        0.2951
@<TRIPOS>BOND
     1     1    14    1
     2     1    63    1
     3     2    18    1
     4     2    66    1
     5     3    27    1
     6     3    70    1
     7     4    31    2
     8     5    33    1
     9     5    76    1
    10     6    33    2
    11     7    31   am
    12     7    32    1
    13     7    73    1
    14     8     9    1
    15     8    13    1
    16     8    14    1
    17     8    22    1
    18     9    10    1
    19     9    17    1
    20     9    34    1
    21    10    11    1
    22    10    18    1
    23    10    35    1
    24    11    12    1
    25    11    15    1
    26    11    36    1
    27    12    16    1
    28    12    21    1
    29    12    25    1
    30    13    19    1
    31    13    23    1
    32    13    37    1
    33    14    15    1
    34    14    38    1
    35    15    39    1
    36    15    40    1
    37    16    20    1
    38    16    24    1
    39    16    41    1
    40    17    19    1
    41    17    42    1
    42    17    43    1
    43    18    20    1
    44    18    44    1
    45    19    45    1
    46    19    46    1
    47    20    47    1
    48    20    48    1
    49    21    26    1
    50    21    49    1
    51    21    50    1
    52    22    51    1
    53    22    52    1
    54    22    53    1
    55    23    28    1
    56    23    29    1
    57    23    54    1
    58    24    27    1
    59    24    55    1
    60    24    56    1
    61    25    57    1
    62    25    58    1
    63    25    59    1
    64    26    27    1
    65    26    60    1
    66    26    61    1
    67    27    62    1
    68    28    30    1
    69    28    64    1
    70    28    65    1
    71    29    67    1
    72    29    68    1
    73    29    69    1
    74    30    31    1
    75    30    71    1
    76    30    72    1
    77    32    33    1
    78    32    74    1
    79    32    75    1
