@<TRIPOS>MOLECULE
lanosterol
 81 84 0 0 0
SMALL
GASTEIGER

@<TRIPOS>ATOM
      1 O          -6.4759    1.4137    0.0126 O.3     1  UNL1       -0.3912
      2 C           1.1123    0.6203    0.4367 C.3     1  UNL1       -0.0196
      3 C           0.4652   -0.7497    0.0351 C.3     1  UNL1       -0.0051
      4 C           2.6215    0.2892    0.3461 C.3     1  UNL1       -0.0322
      5 C          -3.2562    0.5861   -0.0938 C.3     1  UNL1       -0.0073
      6 C          -1.0507   -0.6692    0.1722 C.2     1  UNL1       -0.0633
      7 C          -3.9080   -0.8409   -0.1065 C.3     1  UNL1       -0.0242
      8 C          -1.7028    0.4785   -0.1545 C.2     1  UNL1       -0.0636
      9 C           1.2728   -1.7077    0.9356 C.3     1  UNL1       -0.0431
     10 C           0.6113    1.6901   -0.5330 C.3     1  UNL1       -0.0429
     11 C           2.7100   -1.1410    0.9307 C.3     1  UNL1       -0.0486
     12 C          -0.9311    1.7538   -0.5426 C.3     1  UNL1       -0.0304
     13 C          -5.4886   -0.8806   -0.0735 C.3     1  UNL1       -0.0053
     14 C          -1.7547   -1.9270    0.6164 C.3     1  UNL1       -0.0306
     15 C          -3.2387   -1.7559    0.9269 C.3     1  UNL1       -0.0451
     16 C          -3.8097    1.3710   -1.3233 C.3     1  UNL1       -0.0413
     17 C           3.5830    1.2613    1.0195 C.3     1  UNL1       -0.0402
     18 C           0.7640    1.0754    1.8908 C.3     1  UNL1       -0.0585
     19 C           0.7113   -1.1967   -1.4398 C.3     1  UNL1       -0.0553
     20 C          -6.1046    0.3340   -0.8391 C.3     1  UNL1        0.0607
     21 C          -5.1497    0.8832   -1.8907 C.3     1  UNL1       -0.0256
     22 C          -3.5517    1.3657    1.2111 C.3     1  UNL1       -0.0556
     23 C          -5.9313   -2.1654   -0.8342 C.3     1  UNL1       -0.0572
     24 C          -6.0736   -1.0094    1.3495 C.3     1  UNL1       -0.0572
     25 C           5.0599    0.8425    0.8557 C.3     1  UNL1       -0.0467
     26 C           3.3872    2.6684    0.4432 C.3     1  UNL1       -0.0621
     27 C           5.5703    0.7904   -0.5912 C.3     1  UNL1       -0.0343
     28 C           7.0282    0.4347   -0.6800 C.2     1  UNL1       -0.0853
     29 C           7.5917   -0.7883   -0.6879 C.2     1  UNL1       -0.0796
     30 C           9.0872   -0.9341   -0.7914 C.3     1  UNL1       -0.0440
     31 C           6.8513   -2.0924   -0.6004 C.3     1  UNL1       -0.0440
     32 H           2.8867    0.2398   -0.7163 H       1  UNL1        0.0309
     33 H          -3.6279   -1.2674   -1.0853 H       1  UNL1        0.0315
     34 H           1.2569   -2.7450    0.5830 H       1  UNL1        0.0274
     35 H           0.8883   -1.7167    1.9622 H       1  UNL1        0.0274
     36 H           0.9716    1.4926   -1.5497 H       1  UNL1        0.0274
     37 H           0.9618    2.6950   -0.2939 H       1  UNL1        0.0274
     38 H           3.1099   -1.1561    1.9507 H       1  UNL1        0.0268
     39 H           3.3662   -1.7625    0.3114 H       1  UNL1        0.0268
     40 H          -1.2305    2.0902   -1.5402 H       1  UNL1        0.0310
     41 H          -1.2235    2.5511    0.1506 H       1  UNL1        0.0310
     42 H          -1.6434   -2.6816   -0.1721 H       1  UNL1        0.0310
     43 H          -1.2788   -2.3346    1.5145 H       1  UNL1        0.0310
     44 H          -3.6998   -2.7496    0.9350 H       1  UNL1        0.0271
     45 H          -3.3564   -1.3534    1.9392 H       1  UNL1        0.0271
     46 H          -3.1060    1.3188   -2.1632 H       1  UNL1        0.0274
     47 H          -3.8974    2.4369   -1.0747 H       1  UNL1        0.0274
     48 H           3.3952    1.3046    2.0992 H       1  UNL1        0.0301
     49 H          -0.3108    1.0671    2.0930 H       1  UNL1        0.0235
     50 H           1.2234    0.4350    2.6508 H       1  UNL1        0.0235
     51 H           1.0992    2.0973    2.0897 H       1  UNL1        0.0235
     52 H           0.2395   -0.5268   -2.1669 H       1  UNL1        0.0238
     53 H           1.7711   -1.2669   -1.7005 H       1  UNL1        0.0238
     54 H           0.2889   -2.1948   -1.6137 H       1  UNL1        0.0238
     55 H          -7.0324    0.0215   -1.3338 H       1  UNL1        0.0599
     56 H          -5.6173    1.7182   -2.4276 H       1  UNL1        0.0290
     57 H          -4.9566    0.1074   -2.6424 H       1  UNL1        0.0290
     58 H          -3.1358    2.3791    1.1807 H       1  UNL1        0.0238
     59 H          -4.6137    1.4948    1.4048 H       1  UNL1        0.0238
     60 H          -3.1189    0.8740    2.0892 H       1  UNL1        0.0238
     61 H          -7.0234   -2.2633   -0.8395 H       1  UNL1        0.0236
     62 H          -5.5281   -3.0718   -0.3710 H       1  UNL1        0.0236
     63 H          -5.5987   -2.1498   -1.8781 H       1  UNL1        0.0236
     64 H          -7.1691   -0.9700    1.3214 H       1  UNL1        0.0236
     65 H          -5.7362   -0.2139    2.0166 H       1  UNL1        0.0236
     66 H          -5.8041   -1.9630    1.8165 H       1  UNL1        0.0236
     67 H           5.2165   -0.1334    1.3318 H       1  UNL1        0.0271
     68 H           5.6845    1.5459    1.4237 H       1  UNL1        0.0271
     69 H           3.2686    2.6660   -0.6448 H       1  UNL1        0.0233
     70 H           2.5446    3.1861    0.9043 H       1  UNL1        0.0233
     71 H           4.2575    3.2972    0.6688 H       1  UNL1        0.0233
     72 H          -6.8859    2.1014   -0.5392 H       1  UNL1        0.2098
     73 H           5.4351    1.7604   -1.0826 H       1  UNL1        0.0307
     74 H           4.9929    0.0719   -1.1816 H       1  UNL1        0.0307
     75 H           7.6887    1.2995   -0.7345 H       1  UNL1        0.0571
     76 H           9.5985    0.0322   -0.8564 H       1  UNL1        0.0274
     77 H           9.4785   -1.4577    0.0870 H       1  UNL1        0.0274
     78 H           9.3507   -1.5090   -1.6854 H       1  UNL1        0.0274
     79 H           7.1877   -2.6602    0.2734 H       1  UNL1        0.0274
     80 H           5.7704   -1.9607   -0.5079 H       1  UNL1        0.0274
     81 H           7.0359   -2.6934   -1.4969 H       1  UNL1        0.0274
@<TRIPOS>BOND
     1     1    20    1
     2     1    72    1
     3     2     3    1
     4     2     4    1
     5     2    10    1
     6     2    18    1
     7     3     6    1
     8     3     9    1
     9     3    19    1
    10     4    11    1
    11     4    17    1
    12     4    32    1
    13     5     7    1
    14     5     8    1
    15     5    16    1
    16     5    22    1
    17     6     8    2
    18     6    14    1
    19     7    13    1
    20     7    15    1
    21     7    33    1
    22     8    12    1
    23     9    11    1
    24     9    34    1
    25     9    35    1
    26    10    12    1
    27    10    36    1
    28    10    37    1
    29    11    38    1
    30    11    39    1
    31    12    40    1
    32    12    41    1
    33    13    20    1
    34    13    23    1
    35    13    24    1
    36    14    15    1
    37    14    42    1
    38    14    43    1
    39    15    44    1
    40    15    45    1
    41    16    21    1
    42    16    46    1
    43    16    47    1
    44    17    25    1
    45    17    26    1
    46    17    48    1
    47    18    49    1
    48    18    50    1
    49    18    51    1
    50    19    52    1
    51    19    53    1
    52    19    54    1
    53    20    21    1
    54    20    55    1
    55    21    56    1
    56    21    57    1
    57    22    58    1
    58    22    59    1
    59    22    60    1
    60    23    61    1
    61    23    62    1
    62    23    63    1
    63    24    64    1
    64    24    65    1
    65    24    66    1
    66    25    27    1
    67    25    67    1
    68    25    68    1
    69    26    69    1
    70    26    70    1
    71    26    71    1
    72    27    28    1
    73    27    73    1
    74    27    74    1
    75    28    29    2
    76    28    75    1
    77    29    30    1
    78    29    31    1
    79    30    76    1
    80    30    77    1
    81    30    78    1
    82    31    79    1
    83    31    80    1
    84    31    81    1
