@<TRIPOS>MOLECULE
pregnenolone
 55 58 0 0 0
SMALL
GASTEIGER

@<TRIPOS>ATOM
      1 O          -5.5161    1.0975    0.7528 O.3     1  UNL1       -0.3915
      2 O           5.4375    0.2684    0.9396 O.2     1  UNL1       -0.2974
      3 C           2.2860    0.2529    0.0644 C.3     1  UNL1       -0.0195
      4 C           1.4603   -0.9720   -0.3771 C.3     1  UNL1       -0.0316
      5 C           0.0227   -0.9589    0.1534 C.3     1  UNL1       -0.0306
      6 C          -0.6941    0.3347   -0.3302 C.3     1  UNL1       -0.0285
      7 C          -2.1822    0.4182    0.2014 C.3     1  UNL1       -0.0078
      8 C           1.6099    1.5013   -0.5197 C.3     1  UNL1       -0.0464
      9 C           3.6409   -0.1122   -0.5817 C.3     1  UNL1        0.0229
     10 C           0.1470    1.6141   -0.0570 C.3     1  UNL1       -0.0486
     11 C           2.3625   -2.1520   -0.0335 C.3     1  UNL1       -0.0488
     12 C           3.7773   -1.6319   -0.3473 C.3     1  UNL1       -0.0427
     13 C          -0.7442   -2.1985   -0.3270 C.3     1  UNL1       -0.0311
     14 C          -2.8835   -0.9412    0.0999 C.2     1  UNL1       -0.0648
     15 C           2.4229    0.3937    1.6028 C.3     1  UNL1       -0.0587
     16 C          -2.9467    1.4951   -0.6397 C.3     1  UNL1       -0.0413
     17 C          -2.2241   -2.0853   -0.1557 C.2     1  UNL1       -0.0839
     18 C          -2.2112    0.8310    1.6947 C.3     1  UNL1       -0.0556
     19 C          -4.3897   -0.9766    0.2771 C.3     1  UNL1       -0.0051
     20 C          -4.2442    1.0078   -1.2932 C.3     1  UNL1       -0.0258
     21 C           4.8085    0.6555   -0.0440 C.2     1  UNL1        0.1339
     22 C          -5.1156    0.2359   -0.3124 C.3     1  UNL1        0.0590
     23 C           5.1762    1.9225   -0.7676 C.3     1  UNL1       -0.0058
     24 H           1.3871   -0.9562   -1.4780 H       1  UNL1        0.0309
     25 H           0.0382   -0.9812    1.2490 H       1  UNL1        0.0309
     26 H          -0.7554    0.2497   -1.4277 H       1  UNL1        0.0312
     27 H           1.6320    1.4690   -1.6166 H       1  UNL1        0.0271
     28 H           2.1465    2.4090   -0.2229 H       1  UNL1        0.0271
     29 H           3.6016    0.0501   -1.6678 H       1  UNL1        0.0383
     30 H           0.1449    1.8545    1.0099 H       1  UNL1        0.0268
     31 H          -0.3062    2.4747   -0.5618 H       1  UNL1        0.0268
     32 H           2.1246   -3.0407   -0.6268 H       1  UNL1        0.0268
     33 H           2.2791   -2.4268    1.0238 H       1  UNL1        0.0268
     34 H           4.4600   -1.9009    0.4652 H       1  UNL1        0.0272
     35 H           4.1646   -2.1113   -1.2543 H       1  UNL1        0.0272
     36 H          -0.3921   -3.0750    0.2304 H       1  UNL1        0.0310
     37 H          -0.5409   -2.3946   -1.3871 H       1  UNL1        0.0310
     38 H           2.9628    1.3120    1.8615 H       1  UNL1        0.0235
     39 H           1.4563    0.4468    2.1105 H       1  UNL1        0.0235
     40 H           2.9675   -0.4421    2.0536 H       1  UNL1        0.0235
     41 H          -2.3170    1.8884   -1.4470 H       1  UNL1        0.0274
     42 H          -3.1774    2.3656   -0.0113 H       1  UNL1        0.0274
     43 H          -2.7802   -3.0161   -0.2415 H       1  UNL1        0.0572
     44 H          -1.8351    1.8479    1.8457 H       1  UNL1        0.0238
     45 H          -3.2277    0.8209    2.1027 H       1  UNL1        0.0238
     46 H          -1.6124    0.1561    2.3154 H       1  UNL1        0.0238
     47 H          -4.7857   -1.8728   -0.2189 H       1  UNL1        0.0335
     48 H          -4.6166   -1.0848    1.3449 H       1  UNL1        0.0335
     49 H          -4.7902    1.8815   -1.6689 H       1  UNL1        0.0290
     50 H          -4.0082    0.3776   -2.1597 H       1  UNL1        0.0290
     51 H          -6.0333   -0.0887   -0.8160 H       1  UNL1        0.0596
     52 H           5.3468    1.7092   -1.8257 H       1  UNL1        0.0306
     53 H           4.3858    2.6656   -0.6541 H       1  UNL1        0.0306
     54 H           6.1002    2.3275   -0.3445 H       1  UNL1        0.0306
     55 H          -6.1255    0.5973    1.3221 H       1  UNL1        0.2098
@<TRIPOS>BOND
     1     1    22    1
     2     1    55    1
     3     2    21    2
     4     3     4    1
     5     3     8    1
     6     3     9    1
     7     3    15    1
     8     4     5    1
     9     4    11    1
    10     4    24    1
    11     5     6    1
    12     5    13    1
    13     5    25    1
    14     6     7    1
    15     6    10    1
    16     6    26    1
    17     7    14    1
    18     7    16    1
    19     7    18    1
    20     8    10    1
    21     8    27    1
    22     8    28    1
    23     9    12    1
    24     9    21    1
    25     9    29    1
    26    10    30    1
    27    10    31    1
    28    11    12    1
    29    11    32    1
    30    11    33    1
    31    12    34    1
    32    12    35    1
    33    13    17    1
    34    13    36    1
    35    13    37    1
    36    14    17    2
    37    14    19    1
    38    15    38    1
    39    15    39    1
    40    15    40    1
    41    16    20    1
    42    16    41    1
    43    16    42    1
    44    17    43    1
    45    18    44    1
    46    18    45    1
    47    18    46    1
    48    19    22    1
    49    19    47    1
    50    19    48    1
    51    20    22    1
    52    20    49    1
    53    20    50    1
    54    21    23    1
    55    22    51    1
    56    23    52    1
    57    23    53    1
    58    23    54    1
