@<TRIPOS>MOLECULE
progesterone
 53 56 0 0 0
SMALL
GASTEIGER

@<TRIPOS>ATOM
      1 O           5.5193   -0.1943   -0.6738 O.2     1  UNL1       -0.2974
      2 O          -6.0868   -0.2507    1.0003 O.2     1  UNL1       -0.2927
      3 C           1.4339    0.9512    0.3837 C.3     1  UNL1       -0.0319
      4 C           2.3077   -0.2438   -0.0536 C.3     1  UNL1       -0.0195
      5 C           0.0467    0.9463   -0.2670 C.3     1  UNL1       -0.0338
      6 C          -0.6905   -0.3711    0.1300 C.3     1  UNL1       -0.0288
      7 C          -2.1518   -0.4560   -0.4583 C.3     1  UNL1       -0.0072
      8 C           3.6031    0.0988    0.7150 C.3     1  UNL1        0.0229
      9 C           1.6068   -1.5287    0.4072 C.3     1  UNL1       -0.0464
     10 C           0.1769   -1.6282   -0.1541 C.3     1  UNL1       -0.0486
     11 C           2.3480    2.1533    0.1720 C.3     1  UNL1       -0.0488
     12 C          -0.7800    2.1632    0.1673 C.3     1  UNL1       -0.0459
     13 C           3.7406    1.6284    0.5654 C.3     1  UNL1       -0.0427
     14 C          -2.9014    0.8486   -0.1581 C.2     1  UNL1       -0.0601
     15 C           2.5671   -0.3066   -1.5816 C.3     1  UNL1       -0.0587
     16 C          -2.1694    2.1357   -0.4566 C.3     1  UNL1       -0.0305
     17 C          -2.8808   -1.6553    0.2149 C.3     1  UNL1       -0.0367
     18 C          -2.1473   -0.6683   -1.9890 C.3     1  UNL1       -0.0556
     19 C           4.8185   -0.6330    0.2370 C.2     1  UNL1        0.1339
     20 C          -4.3900   -1.6330    0.0305 C.3     1  UNL1        0.0107
     21 C          -4.1546    0.9011    0.3236 C.2     1  UNL1       -0.0194
     22 C          -4.9586   -0.3272    0.5179 C.2     1  UNL1        0.1561
     23 C           5.1424   -1.9304    0.9272 C.3     1  UNL1       -0.0058
     24 H           1.2710    0.8817    1.4727 H       1  UNL1        0.0309
     25 H           0.1587    0.9952   -1.3554 H       1  UNL1        0.0307
     26 H          -0.8000   -0.3333    1.2265 H       1  UNL1        0.0312
     27 H           3.4792   -0.1162    1.7854 H       1  UNL1        0.0383
     28 H           1.5563   -1.5603    1.5032 H       1  UNL1        0.0271
     29 H           2.1719   -2.4141    0.0958 H       1  UNL1        0.0271
     30 H           0.2299   -1.8175   -1.2308 H       1  UNL1        0.0268
     31 H          -0.2911   -2.5134    0.2905 H       1  UNL1        0.0268
     32 H           2.0569    3.0076    0.7916 H       1  UNL1        0.0268
     33 H           2.3420    2.4836   -0.8726 H       1  UNL1        0.0268
     34 H          -0.2776    3.0892   -0.1355 H       1  UNL1        0.0271
     35 H          -0.8664    2.1911    1.2613 H       1  UNL1        0.0271
     36 H           4.4788    1.9412   -0.1802 H       1  UNL1        0.0272
     37 H           4.0549    2.0657    1.5206 H       1  UNL1        0.0272
     38 H           3.1205    0.5632   -1.9493 H       1  UNL1        0.0235
     39 H           3.1514   -1.1975   -1.8394 H       1  UNL1        0.0235
     40 H           1.6446   -0.3621   -2.1653 H       1  UNL1        0.0235
     41 H          -2.0853    2.2528   -1.5441 H       1  UNL1        0.0310
     42 H          -2.7318    3.0064   -0.0974 H       1  UNL1        0.0310
     43 H          -2.6716   -1.6512    1.2939 H       1  UNL1        0.0278
     44 H          -2.4987   -2.6078   -0.1712 H       1  UNL1        0.0278
     45 H          -1.5297    0.0706   -2.5089 H       1  UNL1        0.0238
     46 H          -1.7684   -1.6600   -2.2577 H       1  UNL1        0.0238
     47 H          -3.1568   -0.5891   -2.4093 H       1  UNL1        0.0238
     48 H          -4.8349   -2.4457    0.6153 H       1  UNL1        0.0345
     49 H          -4.6748   -1.7721   -1.0171 H       1  UNL1        0.0345
     50 H          -4.6479    1.8437    0.5358 H       1  UNL1        0.0652
     51 H           5.2323   -1.7651    2.0037 H       1  UNL1        0.0306
     52 H           4.3687   -2.6714    0.7216 H       1  UNL1        0.0306
     53 H           6.0984   -2.3109    0.5558 H       1  UNL1        0.0306
@<TRIPOS>BOND
     1     1    19    2
     2     2    22    2
     3     3     4    1
     4     3     5    1
     5     3    11    1
     6     3    24    1
     7     4     8    1
     8     4     9    1
     9     4    15    1
    10     5     6    1
    11     5    12    1
    12     5    25    1
    13     6     7    1
    14     6    10    1
    15     6    26    1
    16     7    14    1
    17     7    17    1
    18     7    18    1
    19     8    13    1
    20     8    19    1
    21     8    27    1
    22     9    10    1
    23     9    28    1
    24     9    29    1
    25    10    30    1
    26    10    31    1
    27    11    13    1
    28    11    32    1
    29    11    33    1
    30    12    16    1
    31    12    34    1
    32    12    35    1
    33    13    36    1
    34    13    37    1
    35    14    16    1
    36    14    21    2
    37    15    38    1
    38    15    39    1
    39    15    40    1
    40    16    41    1
    41    16    42    1
    42    17    20    1
    43    17    43    1
    44    17    44    1
    45    18    45    1
    46    18    46    1
    47    18    47    1
    48    19    23    1
    49    20    22    1
    50    20    48    1
    51    20    49    1
    52    21    22    1
    53    21    50    1
    54    23    51    1
    55    23    52    1
    56    23    53    1
