@<TRIPOS>MOLECULE
stigmasterol
 78 81 0 0 0
SMALL
GASTEIGER

@<TRIPOS>ATOM
      1 O           8.4148   -0.1504    0.4018 O.3     1  UNL1       -0.3915
      2 C          -0.2767    0.5414   -0.2403 C.3     1  UNL1       -0.0256
      3 C           0.4461   -0.7299    0.2476 C.3     1  UNL1       -0.0320
      4 C           1.8956   -0.8270   -0.2388 C.3     1  UNL1       -0.0307
      5 C           2.6888    0.4243    0.2388 C.3     1  UNL1       -0.0285
      6 C          -1.6769    0.2787    0.3661 C.3     1  UNL1       -0.0294
      7 C           0.4640    1.7488    0.3513 C.3     1  UNL1       -0.0468
      8 C           4.1851    0.3905   -0.2718 C.3     1  UNL1       -0.0078
      9 C          -0.5234   -1.8550   -0.1014 C.3     1  UNL1       -0.0492
     10 C           1.9466    1.7562   -0.0596 C.3     1  UNL1       -0.0486
     11 C          -1.9149   -1.2262    0.0989 C.3     1  UNL1       -0.0489
     12 C           2.5613   -2.1074    0.2872 C.3     1  UNL1       -0.0311
     13 C          -0.3513    0.6718   -1.7820 C.3     1  UNL1       -0.0590
     14 C           4.7932   -1.0072   -0.0881 C.2     1  UNL1       -0.0648
     15 C          -2.8130    1.1566   -0.1383 C.3     1  UNL1       -0.0224
     16 C           5.0083    1.4181    0.5612 C.3     1  UNL1       -0.0413
     17 C           4.0520   -2.0978    0.1734 C.2     1  UNL1       -0.0839
     18 C           4.2760    0.7575   -1.7726 C.3     1  UNL1       -0.0556
     19 C           6.2952   -1.1270   -0.2049 C.3     1  UNL1       -0.0051
     20 C           6.5212    1.3121    0.3749 C.3     1  UNL1       -0.0258
     21 C           7.0161   -0.1004    0.6646 C.3     1  UNL1        0.0590
     22 C          -2.5262    2.6326    0.1468 C.3     1  UNL1       -0.0587
     23 C          -4.1168    0.7503    0.5049 C.2     1  UNL1       -0.0845
     24 C          -5.1831    0.3108   -0.1815 C.2     1  UNL1       -0.0843
     25 C          -6.4932   -0.0911    0.4649 C.3     1  UNL1       -0.0208
     26 C          -6.8477   -1.5890    0.2288 C.3     1  UNL1       -0.0405
     27 C          -7.5883    0.8917   -0.0059 C.3     1  UNL1       -0.0494
     28 C          -5.8231   -2.5747    0.7998 C.3     1  UNL1       -0.0621
     29 C          -7.0747   -1.8885   -1.2597 C.3     1  UNL1       -0.0621
     30 C          -7.3551    2.3304    0.4338 C.3     1  UNL1       -0.0647
     31 H           0.4886   -0.6981    1.3497 H       1  UNL1        0.0309
     32 H           1.9085   -0.8733   -1.3335 H       1  UNL1        0.0309
     33 H           2.7252    0.3534    1.3383 H       1  UNL1        0.0312
     34 H          -1.6054    0.4005    1.4590 H       1  UNL1        0.0312
     35 H           0.4026    1.7337    1.4470 H       1  UNL1        0.0271
     36 H           0.0440    2.7016    0.0273 H       1  UNL1        0.0271
     37 H          -0.3854   -2.7295    0.5426 H       1  UNL1        0.0268
     38 H          -0.3989   -2.1845   -1.1390 H       1  UNL1        0.0268
     39 H           2.0058    1.9984   -1.1247 H       1  UNL1        0.0268
     40 H           2.4400    2.5794    0.4694 H       1  UNL1        0.0268
     41 H          -2.5247   -1.4011   -0.7949 H       1  UNL1        0.0268
     42 H          -2.4303   -1.6918    0.9464 H       1  UNL1        0.0268
     43 H           2.1716   -2.9679   -0.2700 H       1  UNL1        0.0310
     44 H           2.3057   -2.2711    1.3416 H       1  UNL1        0.0310
     45 H           0.6337    0.6359   -2.2550 H       1  UNL1        0.0235
     46 H          -0.9464   -0.1247   -2.2401 H       1  UNL1        0.0235
     47 H          -0.8005    1.6246   -2.0801 H       1  UNL1        0.0235
     48 H          -2.9224    1.0446   -1.2243 H       1  UNL1        0.0343
     49 H           4.7913    1.2822    1.6296 H       1  UNL1        0.0274
     50 H           4.7041    2.4419    0.3129 H       1  UNL1        0.0274
     51 H           4.5424   -3.0580    0.3146 H       1  UNL1        0.0572
     52 H           5.2904    0.6416   -2.1691 H       1  UNL1        0.0238
     53 H           3.6243    0.1266   -2.3857 H       1  UNL1        0.0238
     54 H           3.9988    1.8014   -1.9514 H       1  UNL1        0.0238
     55 H           6.6449   -2.1298    0.0727 H       1  UNL1        0.0335
     56 H           6.5917   -1.0072   -1.2546 H       1  UNL1        0.0335
     57 H           6.8052    1.6164   -0.6401 H       1  UNL1        0.0290
     58 H           7.0273    2.0212    1.0417 H       1  UNL1        0.0290
     59 H           6.8704   -0.3369    1.7251 H       1  UNL1        0.0596
     60 H          -1.8619    3.0656   -0.6040 H       1  UNL1        0.0235
     61 H          -3.4498    3.2227    0.0899 H       1  UNL1        0.0235
     62 H          -2.1089    2.7903    1.1469 H       1  UNL1        0.0235
     63 H          -4.1756    0.8230    1.5887 H       1  UNL1        0.0572
     64 H          -5.1220    0.2519   -1.2653 H       1  UNL1        0.0572
     65 H           8.5522    0.0499   -0.5398 H       1  UNL1        0.2098
     66 H          -6.4010    0.0324    1.5538 H       1  UNL1        0.0345
     67 H          -7.7971   -1.7812    0.7470 H       1  UNL1        0.0301
     68 H          -7.6816    0.8800   -1.0984 H       1  UNL1        0.0268
     69 H          -8.5544    0.5631    0.3969 H       1  UNL1        0.0268
     70 H          -5.6413   -2.3719    1.8602 H       1  UNL1        0.0233
     71 H          -4.8666   -2.5152    0.2713 H       1  UNL1        0.0233
     72 H          -6.1878   -3.6040    0.7139 H       1  UNL1        0.0233
     73 H          -6.1683   -1.7403   -1.8546 H       1  UNL1        0.0233
     74 H          -7.8735   -1.2728   -1.6823 H       1  UNL1        0.0233
     75 H          -7.3795   -2.9333   -1.3903 H       1  UNL1        0.0233
     76 H          -7.2343    2.3946    1.5199 H       1  UNL1        0.0230
     77 H          -6.4686    2.7622   -0.0401 H       1  UNL1        0.0230
     78 H          -8.2128    2.9506    0.1534 H       1  UNL1        0.0230
@<TRIPOS>BOND
     1     1    21    1
     2     1    65    1
     3     2     3    1
     4     2     6    1
     5     2     7    1
     6     2    13    1
     7     3     4    1
     8     3     9    1
     9     3    31    1
    10     4     5    1
    11     4    12    1
    12     4    32    1
    13     5     8    1
    14     5    10    1
    15     5    33    1
    16     6    11    1
    17     6    15    1
    18     6    34    1
    19     7    10    1
    20     7    35    1
    21     7    36    1
    22     8    14    1
    23     8    16    1
    24     8    18    1
    25     9    11    1
    26     9    37    1
    27     9    38    1
    28    10    39    1
    29    10    40    1
    30    11    41    1
    31    11    42    1
    32    12    17    1
    33    12    43    1
    34    12    44    1
    35    13    45    1
    36    13    46    1
    37    13    47    1
    38    14    17    2
    39    14    19    1
    40    15    22    1
    41    15    23    1
    42    15    48    1
    43    16    20    1
    44    16    49    1
    45    16    50    1
    46    17    51    1
    47    18    52    1
    48    18    53    1
    49    18    54    1
    50    19    21    1
    51    19    55    1
    52    19    56    1
    53    20    21    1
    54    20    57    1
    55    20    58    1
    56    21    59    1
    57    22    60    1
    58    22    61    1
    59    22    62    1
    60    23    24    2
    61    23    63    1
    62    24    25    1
    63    24    64    1
    64    25    26    1
    65    25    27    1
    66    25    66    1
    67    26    28    1
    68    26    29    1
    69    26    67    1
    70    27    30    1
    71    27    68    1
    72    27    69    1
    73    28    70    1
    74    28    71    1
    75    28    72    1
    76    29    73    1
    77    29    74    1
    78    29    75    1
    79    30    76    1
    80    30    77    1
    81    30    78    1
