@<TRIPOS>MOLECULE
taurocholic_acid
 80 83 0 0 0
SMALL
GASTEIGER

@<TRIPOS>ATOM
      1 S          -6.6381    2.6058   -0.0939 S.O2    1  UNL1        0.0812
      2 O           1.0939   -0.9040   -2.0644 O.3     1  UNL1       -0.3912
      3 O           2.4583    2.2590    1.2092 O.3     1  UNL1       -0.3915
      4 O           5.8628    3.1997   -2.2641 O.3     1  UNL1       -0.3918
      5 O          -5.8064   -1.9982    0.5794 O.2     1  UNL1       -0.2758
      6 O          -7.3042    3.4949    1.1004 O.3     1  UNL1       -0.2539
      7 O          -7.0700    3.1419   -1.3716 O.2     1  UNL1       -0.1473
      8 O          -5.2333    2.3988    0.2071 O.2     1  UNL1       -0.1473
      9 N          -5.8613   -0.2685   -0.9712 N.am    1  UNL1       -0.3137
     10 C           0.7797   -1.6430    0.2650 C.3     1  UNL1        0.0001
     11 C           1.1620   -0.2810    0.8904 C.3     1  UNL1       -0.0276
     12 C           2.6583   -0.1683    1.2221 C.3     1  UNL1       -0.0081
     13 C           3.4856   -0.3600   -0.0936 C.3     1  UNL1       -0.0276
     14 C           5.0375   -0.2580    0.1737 C.3     1  UNL1       -0.0257
     15 C          -0.7527   -1.4308    0.1469 C.3     1  UNL1       -0.0304
     16 C           1.5446   -1.8155   -1.0629 C.3     1  UNL1        0.0614
     17 C           3.0662   -1.6458   -0.8670 C.3     1  UNL1       -0.0226
     18 C           5.3550    1.1123    0.8601 C.3     1  UNL1       -0.0307
     19 C           0.1505   -0.1064    2.0223 C.3     1  UNL1       -0.0490
     20 C           3.0006    1.1569    1.9305 C.3     1  UNL1        0.0589
     21 C          -1.1359   -0.7594    1.4858 C.3     1  UNL1       -0.0491
     22 C           4.5074    1.3444    2.1272 C.3     1  UNL1       -0.0232
     23 C           5.8794   -0.3682   -1.1321 C.3     1  UNL1       -0.0448
     24 C           1.0983   -2.8553    1.1827 C.3     1  UNL1       -0.0567
     25 C          -1.5863   -2.6677   -0.1557 C.3     1  UNL1       -0.0400
     26 C           5.2479    2.3089   -0.1090 C.3     1  UNL1       -0.0234
     27 C           5.5271   -1.4123    1.0891 C.3     1  UNL1       -0.0590
     28 C           5.7252    0.8185   -2.0734 C.3     1  UNL1       -0.0263
     29 C           6.0886    2.1173   -1.3673 C.3     1  UNL1        0.0555
     30 C          -3.0724   -2.4914    0.2171 C.3     1  UNL1       -0.0419
     31 C          -1.4748   -3.0242   -1.6426 C.3     1  UNL1       -0.0621
     32 C          -3.7691   -1.3852   -0.5760 C.3     1  UNL1        0.0242
     33 C          -5.2475   -1.2767   -0.2421 C.2     1  UNL1        0.2131
     34 C          -7.2635    0.0563   -0.8442 C.3     1  UNL1        0.0334
     35 C          -7.5137    1.1053    0.2222 C.3     1  UNL1        0.1081
     36 H           0.9365    0.5081    0.1548 H       1  UNL1        0.0310
     37 H           2.9177   -0.9666    1.9241 H       1  UNL1        0.0331
     38 H           3.2097    0.4724   -0.7551 H       1  UNL1        0.0310
     39 H          -0.9452   -0.6785   -0.6320 H       1  UNL1        0.0310
     40 H           1.3831   -2.8193   -1.4656 H       1  UNL1        0.0599
     41 H           3.5334   -1.6334   -1.8579 H       1  UNL1        0.0293
     42 H           3.4489   -2.5297   -0.3476 H       1  UNL1        0.0293
     43 H           6.4048    1.0878    1.1889 H       1  UNL1        0.0308
     44 H          -0.0122    0.9488    2.2642 H       1  UNL1        0.0268
     45 H           0.4822   -0.6081    2.9383 H       1  UNL1        0.0268
     46 H           2.5211    1.1678    2.9166 H       1  UNL1        0.0596
     47 H          -1.4861   -1.4776    2.2349 H       1  UNL1        0.0268
     48 H          -1.9175   -0.0051    1.3518 H       1  UNL1        0.0268
     49 H           4.7072    2.3529    2.5112 H       1  UNL1        0.0293
     50 H           4.8439    0.6497    2.9065 H       1  UNL1        0.0293
     51 H           6.9434   -0.4427   -0.8649 H       1  UNL1        0.0271
     52 H           5.6546   -1.2946   -1.6713 H       1  UNL1        0.0271
     53 H           0.8925   -3.8010    0.6689 H       1  UNL1        0.0236
     54 H           2.1506   -2.8970    1.4756 H       1  UNL1        0.0236
     55 H           0.5137   -2.8517    2.1077 H       1  UNL1        0.0236
     56 H          -1.2458   -3.5292    0.4271 H       1  UNL1        0.0301
     57 H           4.2132    2.4950   -0.4127 H       1  UNL1        0.0293
     58 H           5.5673    3.2281    0.3990 H       1  UNL1        0.0293
     59 H           4.9882   -1.4679    2.0375 H       1  UNL1        0.0235
     60 H           5.4309   -2.3854    0.5969 H       1  UNL1        0.0235
     61 H           6.5884   -1.2877    1.3364 H       1  UNL1        0.0235
     62 H           6.3738    0.6854   -2.9482 H       1  UNL1        0.0290
     63 H           4.7055    0.8711   -2.4734 H       1  UNL1        0.0290
     64 H           7.1545    2.1137   -1.1104 H       1  UNL1        0.0593
     65 H           1.5896   -1.0916   -2.8794 H       1  UNL1        0.2098
     66 H          -3.2030   -2.3262    1.2918 H       1  UNL1        0.0272
     67 H          -3.5911   -3.4403    0.0198 H       1  UNL1        0.0272
     68 H           2.6655    3.0679    1.7073 H       1  UNL1        0.2098
     69 H          -2.2585   -3.7324   -1.9353 H       1  UNL1        0.0233
     70 H          -0.5288   -3.5240   -1.8585 H       1  UNL1        0.0233
     71 H          -1.5547   -2.1490   -2.2951 H       1  UNL1        0.0233
     72 H           6.0998    4.0200   -1.7987 H       1  UNL1        0.2098
     73 H          -3.3139   -0.4089   -0.3847 H       1  UNL1        0.0358
     74 H          -3.7021   -1.5791   -1.6523 H       1  UNL1        0.0358
     75 H          -5.3070    0.2783   -1.6240 H       1  UNL1        0.1487
     76 H          -7.5969    0.4123   -1.8246 H       1  UNL1        0.0479
     77 H          -7.8227   -0.8552   -0.6074 H       1  UNL1        0.0479
     78 H          -8.5806    1.3470    0.2577 H       1  UNL1        0.0541
     79 H          -7.1992    0.7470    1.2079 H       1  UNL1        0.0541
     80 H          -7.0332    3.2468    2.0155 H       1  UNL1        0.2445
@<TRIPOS>BOND
     1     1     6    1
     2     1     7    2
     3     1     8    2
     4     1    35    1
     5     2    16    1
     6     2    65    1
     7     3    20    1
     8     3    68    1
     9     4    29    1
    10     4    72    1
    11     5    33    2
    12     6    80    1
    13     9    33   am
    14     9    34    1
    15     9    75    1
    16    10    11    1
    17    10    15    1
    18    10    16    1
    19    10    24    1
    20    11    12    1
    21    11    19    1
    22    11    36    1
    23    12    13    1
    24    12    20    1
    25    12    37    1
    26    13    14    1
    27    13    17    1
    28    13    38    1
    29    14    18    1
    30    14    23    1
    31    14    27    1
    32    15    21    1
    33    15    25    1
    34    15    39    1
    35    16    17    1
    36    16    40    1
    37    17    41    1
    38    17    42    1
    39    18    22    1
    40    18    26    1
    41    18    43    1
    42    19    21    1
    43    19    44    1
    44    19    45    1
    45    20    22    1
    46    20    46    1
    47    21    47    1
    48    21    48    1
    49    22    49    1
    50    22    50    1
    51    23    28    1
    52    23    51    1
    53    23    52    1
    54    24    53    1
    55    24    54    1
    56    24    55    1
    57    25    30    1
    58    25    31    1
    59    25    56    1
    60    26    29    1
    61    26    57    1
    62    26    58    1
    63    27    59    1
    64    27    60    1
    65    27    61    1
    66    28    29    1
    67    28    62    1
    68    28    63    1
    69    29    64    1
    70    30    32    1
    71    30    66    1
    72    30    67    1
    73    31    69    1
    74    31    70    1
    75    31    71    1
    76    32    33    1
    77    32    73    1
    78    32    74    1
    79    34    35    1
    80    34    76    1
    81    34    77    1
    82    35    78    1
    83    35    79    1
