@<TRIPOS>MOLECULE
testosterone
 49 52 0 0 0
SMALL
GASTEIGER

@<TRIPOS>ATOM
      1 O          -5.1688    1.0642    0.3614 O.3     1  UNL1       -0.3912
      2 O           5.5925   -0.1426    0.9668 O.2     1  UNL1       -0.2927
      3 C          -1.9987   -0.7358    0.3563 C.3     1  UNL1       -0.0301
      4 C          -2.7810    0.5499    0.0267 C.3     1  UNL1       -0.0030
      5 C          -0.6213   -0.7773   -0.3126 C.3     1  UNL1       -0.0337
      6 C           0.2144    0.4455    0.1817 C.3     1  UNL1       -0.0288
      7 C           1.6735    0.4721   -0.4175 C.3     1  UNL1       -0.0072
      8 C          -1.9904    1.7417    0.5808 C.3     1  UNL1       -0.0447
      9 C          -0.5597    1.7829    0.0141 C.3     1  UNL1       -0.0486
     10 C          -4.0932    0.2436    0.7739 C.3     1  UNL1        0.0609
     11 C          -3.0022   -1.8482    0.0627 C.3     1  UNL1       -0.0470
     12 C           0.1166   -2.0834    0.0066 C.3     1  UNL1       -0.0459
     13 C          -4.3586   -1.2435    0.4681 C.3     1  UNL1       -0.0261
     14 C           2.3266   -0.9044   -0.2374 C.2     1  UNL1       -0.0601
     15 C           1.4991   -2.1048   -0.6325 C.3     1  UNL1       -0.0305
     16 C          -3.0589    0.7693   -1.4823 C.3     1  UNL1       -0.0569
     17 C           2.4944    1.5542    0.3431 C.3     1  UNL1       -0.0367
     18 C           1.6734    0.8119   -1.9252 C.3     1  UNL1       -0.0556
     19 C           3.9963    1.4369    0.1370 C.3     1  UNL1        0.0107
     20 C           3.5760   -1.0888    0.2213 C.2     1  UNL1       -0.0194
     21 C           4.4700    0.0565    0.5068 C.2     1  UNL1        0.1561
     22 H          -1.8233   -0.7663    1.4451 H       1  UNL1        0.0310
     23 H          -0.7472   -0.7247   -1.3995 H       1  UNL1        0.0307
     24 H           0.3290    0.3087    1.2696 H       1  UNL1        0.0312
     25 H          -1.9293    1.6770    1.6750 H       1  UNL1        0.0271
     26 H          -2.5033    2.6847    0.3563 H       1  UNL1        0.0271
     27 H          -0.6041    2.0656   -1.0422 H       1  UNL1        0.0268
     28 H          -0.0251    2.5906    0.5260 H       1  UNL1        0.0268
     29 H          -3.9663    0.3777    1.8550 H       1  UNL1        0.0599
     30 H          -2.7859   -2.7575    0.6327 H       1  UNL1        0.0269
     31 H          -3.0056   -2.1153   -1.0000 H       1  UNL1        0.0269
     32 H          -0.4556   -2.9414   -0.3650 H       1  UNL1        0.0271
     33 H           0.2096   -2.2096    1.0932 H       1  UNL1        0.0271
     34 H          -5.0992   -1.3852   -0.3267 H       1  UNL1        0.0290
     35 H          -4.7540   -1.7424    1.3603 H       1  UNL1        0.0290
     36 H           1.3981   -2.1230   -1.7247 H       1  UNL1        0.0310
     37 H           1.9984   -3.0415   -0.3556 H       1  UNL1        0.0310
     38 H          -3.6680   -0.0294   -1.9172 H       1  UNL1        0.0236
     39 H          -3.5953    1.7114   -1.6444 H       1  UNL1        0.0236
     40 H          -2.1427    0.8240   -2.0762 H       1  UNL1        0.0236
     41 H           2.2935    1.4748    1.4208 H       1  UNL1        0.0278
     42 H           2.1810    2.5611    0.0428 H       1  UNL1        0.0278
     43 H           0.9981    0.1670   -2.4959 H       1  UNL1        0.0238
     44 H           1.3682    1.8480   -2.1053 H       1  UNL1        0.0238
     45 H           2.6709    0.6934   -2.3645 H       1  UNL1        0.0238
     46 H           4.5045    2.1630    0.7812 H       1  UNL1        0.0345
     47 H           4.2829    1.6420   -0.8991 H       1  UNL1        0.0345
     48 H           3.9997   -2.0795    0.3474 H       1  UNL1        0.0652
     49 H          -5.4481    0.7930   -0.5287 H       1  UNL1        0.2098
@<TRIPOS>BOND
     1     1    10    1
     2     1    49    1
     3     2    21    2
     4     3     4    1
     5     3     5    1
     6     3    11    1
     7     3    22    1
     8     4     8    1
     9     4    10    1
    10     4    16    1
    11     5     6    1
    12     5    12    1
    13     5    23    1
    14     6     7    1
    15     6     9    1
    16     6    24    1
    17     7    14    1
    18     7    17    1
    19     7    18    1
    20     8     9    1
    21     8    25    1
    22     8    26    1
    23     9    27    1
    24     9    28    1
    25    10    13    1
    26    10    29    1
    27    11    13    1
    28    11    30    1
    29    11    31    1
    30    12    15    1
    31    12    32    1
    32    12    33    1
    33    13    34    1
    34    13    35    1
    35    14    15    1
    36    14    20    2
    37    15    36    1
    38    15    37    1
    39    16    38    1
    40    16    39    1
    41    16    40    1
    42    17    19    1
    43    17    41    1
    44    17    42    1
    45    18    43    1
    46    18    44    1
    47    18    45    1
    48    19    21    1
    49    19    46    1
    50    19    47    1
    51    20    21    1
    52    20    48    1
