@<TRIPOS>MOLECULE
*****
 33 37 0 0 0
SMALL
GASTEIGER

@<TRIPOS>ATOM
      1 FE         21.4377  -12.2750  -24.3979 Fe      1  UNL1        0.0000
      2 C          20.9644  -14.0055  -22.4828 C.2     1  UNL1        0.0000
      3 H          18.9929  -13.2865  -22.8985 H       1  UNL1        0.0000
      4 C          21.9372  -10.8026  -26.5838 C.3     1  UNL1        0.0000
      5 O          20.2966  -11.2163  -23.2497 O.3     1  UNL1        0.0000
      6 H          20.5664   -9.1406  -25.4250 H       1  UNL1        0.0000
      7 O          21.9923  -13.2570  -22.8376 O.3     1  UNL1        0.0000
      8 C          22.9085  -10.3961  -25.5056 C.2     1  UNL1        0.0000
      9 O          21.0434  -14.7109  -21.4940 O.2     1  UNL1        0.0000
     10 H          19.0435   -9.8727  -25.9338 H       1  UNL1        0.0000
     11 H          22.3945  -11.6315  -27.1620 H       1  UNL1        0.0000
     12 H          19.2180  -15.0126  -23.2716 H       1  UNL1        0.0000
     13 C          19.6887  -10.2703  -23.9228 C.2     1  UNL1        0.0000
     14 N          20.0782  -13.6631  -24.6796 N.4     1  UNL1        0.0000
     15 C          19.0949  -13.0316  -25.5444 C.3     1  UNL1        0.0000
     16 C          21.9119  -14.5738  -25.6711 C.2     1  UNL1        0.0000
     17 O          18.9117   -9.5268  -23.3525 O.2     1  UNL1        0.0000
     18 O          22.4833  -15.5309  -26.1666 O.2     1  UNL1        0.0000
     19 O          23.7411   -9.5358  -25.7247 O.2     1  UNL1        0.0000
     20 H          21.7332   -9.9792  -27.3021 H       1  UNL1        0.0000
     21 O          22.8362  -10.9516  -24.3080 O.3     1  UNL1        0.0000
     22 C          19.8300  -12.1804  -26.5979 C.3     1  UNL1        0.0000
     23 H          18.4177  -12.3815  -24.9527 H       1  UNL1        0.0000
     24 H          18.4438  -13.7796  -26.0490 H       1  UNL1        0.0000
     25 N          20.7147  -11.2362  -25.9103 N.4     1  UNL1        1.0000
     26 H          20.4294  -12.8652  -27.2336 H       1  UNL1        0.0000
     27 H          19.1232  -11.6655  -27.2829 H       1  UNL1        0.0000
     28 C          20.6407  -14.6624  -25.2777 C.3     1  UNL1        0.0000
     29 O          22.5804  -13.3677  -25.5027 O.3     1  UNL1        0.0000
     30 C          19.9776  -10.0820  -25.3695 C.3     1  UNL1        0.0000
     31 C          19.7129  -14.0169  -23.3225 C.3     1  UNL1        0.0000
     32 H          20.0598  -14.8654  -26.1530 H       1  UNL1        0.0000
     33 H          20.6694  -15.4180  -24.5206 H       1  UNL1        0.0000
@<TRIPOS>UNITY_ATOM_ATTR
25 1
charge 1
@<TRIPOS>BOND
     1    10    30    1
     2     4    11    1
     3     2    31    1
     4     3    31    1
     5    12    31    1
     6     2     9    2
     7     2     7    1
     8     6    30    1
     9     4    25    1
    10     5    13    1
    11    13    30    1
    12     4     8    1
    13    14    15    1
    14    16    28    1
    15     1    14    1
    16    16    18    2
    17     8    19    2
    18     4    20    1
    19     8    21    1
    20    15    22    1
    21    15    23    1
    22    15    24    1
    23    22    25    1
    24    22    26    1
    25    22    27    1
    26    14    28    1
    27     1     5    1
    28    25    30    1
    29    14    31    1
    30    13    17    2
    31     1    29    1
    32    16    29    1
    33     1    21    1
    34     1    25    1
    35     1     7    1
    36    28    32    1
    37    28    33    1
