# name: Acetone
# residue: ACN
# density: 0.784
# source: 3D geometry generated by Open Babel 3.1.1 from SMILES CC(=O)C
# kind: single molecule; EasyHybrid builds the periodic solvent template at this density.
@<TRIPOS>MOLECULE
acetone
 10 9 0 0 0
SMALL
GASTEIGER

@<TRIPOS>ATOM
      1 C1       1.0694     0.0747     0.0251 C.3       1 ACN -0.0063
      2 C2       2.5737     0.1068     0.0214 C.2       1 ACN 0.1273
      3 O1       3.1934     1.1635    -0.1011 O.2       1 ACN -0.2980
      4 C3       3.2979    -1.2031     0.1733 C.3       1 ACN -0.0063
      5 H1       0.6812     1.0905    -0.0927 H         1 ACN 0.0306
      6 H2       0.7119    -0.3303     0.9750 H         1 ACN 0.0306
      7 H3       0.7119    -0.5369    -0.8068 H         1 ACN 0.0306
      8 H4       2.5873    -2.0282     0.2690 H         1 ACN 0.0306
      9 H5       3.9191    -1.1686     1.0719 H         1 ACN 0.0306
     10 H6       3.9191    -1.3751    -0.7094 H         1 ACN 0.0306
@<TRIPOS>BOND
     1     1     2    1
     2     2     3    2
     3     2     4    1
     4     1     5    1
     5     1     6    1
     6     1     7    1
     7     4     8    1
     8     4     9    1
     9     4    10    1
