# name: Acetonitrile
# residue: CCN
# density: 0.786
# source: 3D geometry generated by Open Babel 3.1.1 from SMILES CC#N
# kind: single molecule; EasyHybrid builds the periodic solvent template at this density.
@<TRIPOS>MOLECULE
acetonitrile
 6 5 0 0 0
SMALL
GASTEIGER

@<TRIPOS>ATOM
      1 C1       0.9499    -0.0392     0.0771 C.3       1 CCN 0.0232
      2 C2       2.4699    -0.0392     0.0771 C.1       1 CCN 0.0591
      3 N1       3.7309    -0.0392     0.0771 N.1       1 CCN -0.1969
      4 H1       0.5771     0.8050    -0.5094 H         1 CCN 0.0382
      5 H2       0.5771     0.0466     1.1015 H         1 CCN 0.0382
      6 H3       0.5771    -0.9693    -0.3607 H         1 CCN 0.0382
@<TRIPOS>BOND
     1     1     2    1
     2     2     3    3
     3     1     4    1
     4     1     5    1
     5     1     6    1
