# name: Benzene
# residue: BNZ
# density: 0.876
# source: 3D geometry generated by Open Babel 3.1.1 from SMILES c1ccccc1
# kind: single molecule; EasyHybrid builds the periodic solvent template at this density.
@<TRIPOS>MOLECULE
benzene
 12 12 0 0 0
SMALL
GASTEIGER

@<TRIPOS>ATOM
      1 C1       1.3827    -0.2217     0.0054 C.ar      1 BNZ -0.0618
      2 C2       0.5065    -1.3068    -0.0083 C.ar      1 BNZ -0.0618
      3 C3      -0.8715    -1.0905    -0.0143 C.ar      1 BNZ -0.0618
      4 C4      -1.3730     0.2109    -0.0043 C.ar      1 BNZ -0.0618
      5 C5      -0.4967     1.2961     0.0105 C.ar      1 BNZ -0.0618
      6 C6       0.8811     1.0797     0.0144 C.ar      1 BNZ -0.0618
      7 H1       2.4563    -0.3904     0.0095 H         1 BNZ 0.0618
      8 H2       0.8972    -2.3209    -0.0145 H         1 BNZ 0.0618
      9 H3      -1.5543    -1.9359    -0.0267 H         1 BNZ 0.0618
     10 H4      -2.4467     0.3797    -0.0083 H         1 BNZ 0.0618
     11 H5      -0.8876     2.3100     0.0187 H         1 BNZ 0.0618
     12 H6       1.5640     1.9252     0.0245 H         1 BNZ 0.0618
@<TRIPOS>BOND
     1     1     2   ar
     2     2     3   ar
     3     3     4   ar
     4     4     5   ar
     5     5     6   ar
     6     1     6   ar
     7     1     7    1
     8     2     8    1
     9     3     9    1
    10     4    10    1
    11     5    11    1
    12     6    12    1
