# name: Chloroform
# residue: CLF
# density: 1.479
# source: 3D geometry generated by Open Babel 3.1.1 from SMILES ClC(Cl)Cl
# kind: single molecule; EasyHybrid builds the periodic solvent template at this density.
@<TRIPOS>MOLECULE
chloroform
 5 4 0 0 0
SMALL
GASTEIGER

@<TRIPOS>ATOM
      1 CL1      0.9939    -0.0532     0.0771 Cl        1 CLF -0.0870
      2 C1       2.7653    -0.0877     0.0775 C.3       1 CLF 0.1805
      3 CL2      3.3721    -0.8767     1.5432 Cl        1 CLF -0.0870
      4 CL3      3.3721    -0.9112    -1.3692 Cl        1 CLF -0.0870
      5 H1       3.1297     0.9427     0.0653 H         1 CLF 0.0806
@<TRIPOS>BOND
     1     1     2    1
     2     2     3    1
     3     2     4    1
     4     2     5    1
