# name: Cyclohexane
# residue: CHX
# density: 0.774
# source: 3D geometry generated by Open Babel 3.1.1 from SMILES C1CCCCC1
# kind: single molecule; EasyHybrid builds the periodic solvent template at this density.
@<TRIPOS>MOLECULE
cyclohexane
 18 18 0 0 0
SMALL
GASTEIGER

@<TRIPOS>ATOM
      1 C1      -1.4206     0.3280    -0.2206 C.3       1 CHX -0.0531
      2 C2      -0.9908    -1.0650     0.2341 C.3       1 CHX -0.0531
      3 C3       0.4252    -1.3905    -0.2336 C.3       1 CHX -0.0531
      4 C4       1.4200    -0.3281     0.2262 C.3       1 CHX -0.0531
      5 C5       0.9945     1.0659    -0.2274 C.3       1 CHX -0.0531
      6 C6      -0.4255     1.3934     0.2308 C.3       1 CHX -0.0531
      7 H1      -2.4146     0.5571     0.1805 H         1 CHX 0.0265
      8 H2      -1.5045     0.3455    -1.3141 H         1 CHX 0.0265
      9 H3      -1.6907    -1.8136    -0.1534 H         1 CHX 0.0265
     10 H4      -1.0352    -1.1204     1.3288 H         1 CHX 0.0265
     11 H5       0.4422    -1.4575    -1.3282 H         1 CHX 0.0265
     12 H6       0.7260    -2.3708     0.1522 H         1 CHX 0.0265
     13 H7       2.4166    -0.5579    -0.1681 H         1 CHX 0.0265
     14 H8       1.4959    -0.3483     1.3205 H         1 CHX 0.0265
     15 H9       1.0471     1.1250    -1.3218 H         1 CHX 0.0265
     16 H10      1.6917     1.8127     0.1678 H         1 CHX 0.0265
     17 H11     -0.7249     2.3706    -0.1629 H         1 CHX 0.0265
     18 H12     -0.4449     1.4685     1.3250 H         1 CHX 0.0265
@<TRIPOS>BOND
     1     1     2    1
     2     2     3    1
     3     3     4    1
     4     4     5    1
     5     5     6    1
     6     1     6    1
     7     1     7    1
     8     1     8    1
     9     2     9    1
    10     2    10    1
    11     3    11    1
    12     3    12    1
    13     4    13    1
    14     4    14    1
    15     5    15    1
    16     5    16    1
    17     6    17    1
    18     6    18    1
