# name: Dichloromethane
# residue: DCM
# density: 1.326
# source: 3D geometry generated by Open Babel 3.1.1 from SMILES ClCCl
# kind: single molecule; EasyHybrid builds the periodic solvent template at this density.
@<TRIPOS>MOLECULE
dichloromethane
 5 4 0 0 0
SMALL
GASTEIGER

@<TRIPOS>ATOM
      1 CL1      1.0659    -0.0565     0.0461 Cl        1 DCM -0.1083
      2 C1       2.8329    -0.0788     0.0336 C.3       1 DCM 0.0970
      3 CL2      3.4461    -1.5264    -0.7735 Cl        1 DCM -0.1083
      4 H1       3.1960    -0.0655     1.0642 H         1 DCM 0.0597
      5 H2       3.1960     0.8049    -0.4967 H         1 DCM 0.0597
@<TRIPOS>BOND
     1     1     2    1
     2     2     3    1
     3     2     4    1
     4     2     5    1
