# name: N,N-Dimethylformamide (DMF)
# residue: DMF
# density: 0.944
# source: 3D geometry generated by Open Babel 3.1.1 from SMILES CN(C)C=O
# kind: single molecule; EasyHybrid builds the periodic solvent template at this density.
@<TRIPOS>MOLECULE
dmf
 12 11 0 0 0
SMALL
GASTEIGER

@<TRIPOS>ATOM
      1 C1       1.1231     0.0299     0.0484 C.3       1 DMF 0.0026
      2 N1       2.5705     0.0152     0.0653 N.am      1 DMF -0.3101
      3 C2       3.2803    -0.8081     1.0231 C.3       1 DMF 0.0026
      4 C3       3.2912     0.7828    -0.8267 C.2       1 DMF 0.2020
      5 O1       4.5119     0.8405    -0.8926 O.2       1 DMF -0.2793
      6 H1       0.7090    -0.6295     0.8148 H         1 DMF 0.0428
      7 H2       0.7791    -0.2920    -0.9391 H         1 DMF 0.0428
      8 H3       0.7791     1.0544     0.2193 H         1 DMF 0.0428
      9 H4       2.5870    -1.3589     1.6634 H         1 DMF 0.0428
     10 H5       3.9163    -0.1659     1.6399 H         1 DMF 0.0428
     11 H6       3.9167    -1.5139     0.4808 H         1 DMF 0.0428
     12 H7       2.6449     1.3653    -1.5046 H         1 DMF 0.1253
@<TRIPOS>BOND
     1     1     2    1
     2     2     3    1
     3     2     4   am
     4     4     5    2
     5     1     6    1
     6     1     7    1
     7     1     8    1
     8     3     9    1
     9     3    10    1
    10     3    11    1
    11     4    12    1
