# name: Dimethyl sulfoxide (DMSO)
# residue: DMS
# density: 1.100
# source: 3D geometry generated by Open Babel 3.1.1 from SMILES CS(=O)C
# kind: single molecule; EasyHybrid builds the periodic solvent template at this density.
@<TRIPOS>MOLECULE
dmso
 10 9 0 0 0
SMALL
GASTEIGER

@<TRIPOS>ATOM
      1 C1       1.1184    -0.1501     0.0992 C.3       1 DMS 0.0115
      2 S1       2.9138    -0.0180    -0.0790 S.O       1 DMS 0.0159
      3 O1       3.3422     1.2490     0.5994 O.2       1 DMS -0.2577
      4 C2       3.3129    -1.3904     1.0301 C.3       1 DMS 0.0115
      5 H1       0.6521     0.6450    -0.4877 H         1 DMS 0.0365
      6 H2       0.8372    -0.0372     1.1489 H         1 DMS 0.0365
      7 H3       0.7840    -1.1196    -0.2771 H         1 DMS 0.0365
      8 H4       2.9066    -2.3192     0.6229 H         1 DMS 0.0365
      9 H5       2.8975    -1.2021     2.0229 H         1 DMS 0.0365
     10 H6       4.4000    -1.4732     1.1024 H         1 DMS 0.0365
@<TRIPOS>BOND
     1     1     2    1
     2     2     3    2
     3     2     4    1
     4     1     5    1
     5     1     6    1
     6     1     7    1
     7     4     8    1
     8     4     9    1
     9     4    10    1
