# name: Ethanol
# residue: EOH
# density: 0.789
# source: 3D geometry generated by Open Babel 3.1.1 from SMILES CCO
# kind: single molecule; EasyHybrid builds the periodic solvent template at this density.
@<TRIPOS>MOLECULE
ethanol
 9 8 0 0 0
SMALL
GASTEIGER

@<TRIPOS>ATOM
      1 C1       1.0805     0.0271    -0.0594 C.3       1 EOH -0.0418
      2 C2       2.5948     0.0250    -0.0664 C.3       1 EOH 0.0414
      3 O1       3.0765     0.3985    -1.3488 O.3       1 EOH -0.3953
      4 H1       0.6957    -0.2493     0.9261 H         1 EOH 0.0252
      5 H2       0.6885    -0.6769    -0.8008 H         1 EOH 0.0252
      6 H3       0.6951     1.0170    -0.3250 H         1 EOH 0.0252
      7 H4       2.9862    -0.9665     0.1810 H         1 EOH 0.0554
      8 H5       2.9818     0.7407     0.6648 H         1 EOH 0.0554
      9 H6       2.7369    -0.2490    -1.9898 H         1 EOH 0.2094
@<TRIPOS>BOND
     1     1     2    1
     2     2     3    1
     3     1     4    1
     4     1     5    1
     5     1     6    1
     6     2     7    1
     7     2     8    1
     8     3     9    1
