# name: Methanol
# residue: MOH
# density: 0.792
# source: 3D geometry generated by Open Babel 3.1.1 from SMILES CO
# kind: single molecule; EasyHybrid builds the periodic solvent template at this density.
@<TRIPOS>MOLECULE
methanol
 6 5 0 0 0
SMALL
GASTEIGER

@<TRIPOS>ATOM
      1 C1       1.0433     0.0531    -0.0742 C.3       1 MOH 0.0330
      2 O1       2.4590     0.0488    -0.0840 O.3       1 MOH -0.3982
      3 H1       0.6818     1.0783     0.0368 H         1 MOH 0.0521
      4 H2       0.6818    -0.5636     0.7523 H         1 MOH 0.0521
      5 H3       0.6802    -0.3586    -1.0189 H         1 MOH 0.0521
      6 H4       2.7519     0.4192     0.7659 H         1 MOH 0.2090
@<TRIPOS>BOND
     1     1     2    1
     2     1     3    1
     3     1     4    1
     4     1     5    1
     5     2     6    1
