# name: Tetrahydrofuran (THF)
# residue: THF
# density: 0.889
# source: 3D geometry generated by Open Babel 3.1.1 from SMILES C1CCOC1
# kind: single molecule; EasyHybrid builds the periodic solvent template at this density.
@<TRIPOS>MOLECULE
thf
 13 13 0 0 0
SMALL
GASTEIGER

@<TRIPOS>ATOM
      1 C1      -1.0906     0.7302     0.2205 C.3       1 THF -0.0274
      2 C2      -1.1092    -0.7100    -0.2231 C.3       1 THF -0.0274
      3 C3       0.2933    -1.1650     0.1176 C.3       1 THF 0.0477
      4 O1       1.1443    -0.0164    -0.0002 O.3       1 THF -0.3798
      5 C4       0.3200     1.1501    -0.1301 C.3       1 THF 0.0477
      6 H1      -1.2389     0.7862     1.3055 H         1 THF 0.0288
      7 H2      -1.8520     1.3488    -0.2615 H         1 THF 0.0288
      8 H3      -1.2660    -0.7622    -1.3072 H         1 THF 0.0288
      9 H4      -1.8823    -1.3101     0.2633 H         1 THF 0.0288
     10 H5       0.6501    -1.9573    -0.5463 H         1 THF 0.0560
     11 H6       0.3548    -1.5215     1.1514 H         1 THF 0.0560
     12 H7       0.3858     1.4915    -1.1687 H         1 THF 0.0560
     13 H8       0.6969     1.9427     0.5223 H         1 THF 0.0560
@<TRIPOS>BOND
     1     1     2    1
     2     2     3    1
     3     3     4    1
     4     4     5    1
     5     1     5    1
     6     1     6    1
     7     1     7    1
     8     2     8    1
     9     2     9    1
    10     3    10    1
    11     3    11    1
    12     5    12    1
    13     5    13    1
