# name: Toluene
# residue: MBN
# density: 0.862
# source: 3D geometry generated by Open Babel 3.1.1 from SMILES Cc1ccccc1
# kind: single molecule; EasyHybrid builds the periodic solvent template at this density.
@<TRIPOS>MOLECULE
toluene
 15 15 0 0 0
SMALL
GASTEIGER

@<TRIPOS>ATOM
      1 C1       2.4901    -0.0088    -0.0120 C.3       1 MBN -0.0397
      2 C2       0.9904     0.0032    -0.0018 C.ar      1 MBN -0.0504
      3 C3       0.2797     1.2094     0.0005 C.ar      1 MBN -0.0588
      4 C4      -1.1163     1.2067     0.0027 C.ar      1 MBN -0.0615
      5 C5      -1.8131    -0.0004     0.0025 C.ar      1 MBN -0.0617
      6 C6      -1.1148    -1.2060     0.0017 C.ar      1 MBN -0.0615
      7 C7       0.2814    -1.2049    -0.0005 C.ar      1 MBN -0.0588
      8 H1       2.9001     1.0064     0.0049 H         1 MBN 0.0278
      9 H2       2.8565    -0.5043    -0.9168 H         1 MBN 0.0278
     10 H3       2.8696    -0.5381     0.8679 H         1 MBN 0.0278
     11 H4       0.8078     2.1599    -0.0007 H         1 MBN 0.0620
     12 H5      -1.6606     2.1476     0.0039 H         1 MBN 0.0618
     13 H6      -2.8997    -0.0010     0.0030 H         1 MBN 0.0618
     14 H7      -1.6565    -2.1479     0.0016 H         1 MBN 0.0618
     15 H8       0.8150    -2.1528    -0.0022 H         1 MBN 0.0620
@<TRIPOS>BOND
     1     1     2    1
     2     2     3   ar
     3     3     4   ar
     4     4     5   ar
     5     5     6   ar
     6     6     7   ar
     7     2     7   ar
     8     1     8    1
     9     1     9    1
    10     1    10    1
    11     3    11    1
    12     4    12    1
    13     5    13    1
    14     6    14    1
    15     7    15    1
