# name: Water (TIP3P geometry)
# residue: HOH
# density: 1.000
# source: equilibrated OPLS water box snapshot (examples/pkl/waterBox_OPLS.pkl), 734 waters,
#         28 A cube, rebuilt with rigid TIP3P geometry (O-H 0.9572 A, H-O-H 104.52 deg).
# kind: pre-equilibrated periodic box (CRYSIN section) used directly as the solvent template.
@<TRIPOS>MOLECULE
water_tip3p_box
 2202  1468   734 0 0
SMALL
NO_CHARGES

@<TRIPOS>ATOM
      1 O        7.2999     9.3930    10.9464 O.3       1 HOH1 0.0000
      2 H1       7.4531     8.7657    10.2398 H         1 HOH1 0.0000
      3 H2       8.1762     9.6488    11.2344 H         1 HOH1 0.0000
      4 O       21.6491    10.3777    16.5337 O.3       2 HOH2 0.0000
      5 H1      21.0555    10.7581    15.8864 H         2 HOH2 0.0000
      6 H2      22.1507    11.1221    16.8661 H         2 HOH2 0.0000
      7 O       12.8810    18.9749    25.7954 O.3       3 HOH3 0.0000
      8 H1      11.9593    18.8306    26.0093 H         3 HOH3 0.0000
      9 H2      13.0943    19.8129    26.2059 H         3 HOH3 0.0000
     10 O        9.3527    25.4329     2.5351 O.3       4 HOH4 0.0000
     11 H1       8.5999    25.0292     2.1032 H         4 HOH4 0.0000
     12 H2      10.0545    25.3877     1.8858 H         4 HOH4 0.0000
     13 O       20.7662     7.3550     9.3734 O.3       5 HOH5 0.0000
     14 H1      21.7065     7.4581     9.2271 H         5 HOH5 0.0000
     15 H2      20.5255     6.5872     8.8550 H         5 HOH5 0.0000
     16 O       12.9786    14.8401    21.3552 O.3       6 HOH6 0.0000
     17 H1      12.9058    15.7938    21.3937 H         6 HOH6 0.0000
     18 H2      13.9178    14.6743    21.2736 H         6 HOH6 0.0000
     19 O       17.2679    10.3700     6.1373 O.3       7 HOH7 0.0000
     20 H1      16.9724     9.6086     6.6364 H         7 HOH7 0.0000
     21 H2      17.8152    10.0039     5.4426 H         7 HOH7 0.0000
     22 O       16.6760    16.6283    21.1712 O.3       8 HOH8 0.0000
     23 H1      17.1371    16.4023    21.9790 H         8 HOH8 0.0000
     24 H2      16.8256    17.5677    21.0643 H         8 HOH8 0.0000
     25 O        2.2373     5.6815    17.2608 O.3       9 HOH9 0.0000
     26 H1       2.4961     4.9211    17.7815 H         9 HOH9 0.0000
     27 H2       2.2397     6.4097    17.8820 H         9 HOH9 0.0000
     28 O       22.1193    21.9151     9.1502 O.3      10 HOH10 0.0000
     29 H1      22.5650    22.3288     8.4110 H        10 HOH10 0.0000
     30 H2      22.6982    21.1979     9.4086 H        10 HOH10 0.0000
     31 O        1.6973     8.4087     8.1277 O.3      11 HOH11 0.0000
     32 H1       0.9309     8.8401     8.5056 H        11 HOH11 0.0000
     33 H2       1.4319     8.1863     7.2353 H        11 HOH11 0.0000
     34 O       11.3350     6.9240     7.9745 O.3      12 HOH12 0.0000
     35 H1      11.4400     6.9509     7.0234 H        12 HOH12 0.0000
     36 H2      10.9359     6.0714     8.1478 H        12 HOH12 0.0000
     37 O        1.8284    14.9511    10.0149 O.3      13 HOH13 0.0000
     38 H1       2.6200    15.2993    10.4252 H        13 HOH13 0.0000
     39 H2       2.1468    14.2832     9.4076 H        13 HOH13 0.0000
     40 O        3.3118    27.3968     0.0372 O.3      14 HOH14 0.0000
     41 H1       2.4276    27.2507     0.3736 H        14 HOH14 0.0000
     42 H2       3.2430    28.2015    -0.4767 H        14 HOH14 0.0000
     43 O       19.2540    17.8058     5.6466 O.3      15 HOH15 0.0000
     44 H1      20.0763    18.0801     6.0526 H        15 HOH15 0.0000
     45 H2      19.1809    18.3490     4.8618 H        15 HOH15 0.0000
     46 O        5.9902    26.8060    19.2272 O.3      16 HOH16 0.0000
     47 H1       6.3393    26.5652    18.3691 H        16 HOH16 0.0000
     48 H2       6.7169    26.6576    19.8322 H        16 HOH16 0.0000
     49 O        7.8939    20.6450     4.2098 O.3      17 HOH17 0.0000
     50 H1       6.9784    20.5141     3.9628 H        17 HOH17 0.0000
     51 H2       8.2790    19.7693     4.1766 H        17 HOH17 0.0000
     52 O       14.3488     7.0157     5.6835 O.3      18 HOH18 0.0000
     53 H1      14.5644     7.5186     4.8982 H        18 HOH18 0.0000
     54 H2      13.4233     7.2021     5.8414 H        18 HOH18 0.0000
     55 O       23.2121    17.7622     1.2479 O.3      19 HOH19 0.0000
     56 H1      23.3163    18.7001     1.0880 H        19 HOH19 0.0000
     57 H2      23.4885    17.3472     0.4309 H        19 HOH19 0.0000
     58 O       20.1495    25.5767     1.3976 O.3      20 HOH20 0.0000
     59 H1      20.7598    26.3138     1.4203 H        20 HOH20 0.0000
     60 H2      20.4691    25.0223     0.6858 H        20 HOH20 0.0000
     61 O        6.7449    18.8211    19.4600 O.3      21 HOH21 0.0000
     62 H1       7.1242    18.3169    20.1798 H        21 HOH21 0.0000
     63 H2       7.2814    18.5953    18.7001 H        21 HOH21 0.0000
     64 O       17.8936     1.0202    15.0714 O.3      22 HOH22 0.0000
     65 H1      18.4211     1.6858    14.6299 H        22 HOH22 0.0000
     66 H2      18.3768     0.8244    15.8741 H        22 HOH22 0.0000
     67 O       13.8543     1.7600    18.5746 O.3      23 HOH23 0.0000
     68 H1      14.5162     2.0031    17.9273 H        23 HOH23 0.0000
     69 H2      13.7363     2.5480    19.1049 H        23 HOH23 0.0000
     70 O        8.6751    17.6027    20.9600 O.3      24 HOH24 0.0000
     71 H1       9.0625    17.1909    21.7323 H        24 HOH24 0.0000
     72 H2       9.2620    18.3310    20.7565 H        24 HOH24 0.0000
     73 O       21.1977    21.2842     5.7688 O.3      25 HOH25 0.0000
     74 H1      20.6804    21.8473     6.3446 H        25 HOH25 0.0000
     75 H2      21.7422    21.8902     5.2664 H        25 HOH25 0.0000
     76 O       21.6924    14.3821    11.4601 O.3      26 HOH26 0.0000
     77 H1      20.8313    14.6073    11.8123 H        26 HOH26 0.0000
     78 H2      21.7357    14.8401    10.6207 H        26 HOH26 0.0000
     79 O        2.1840    11.3446     1.6077 O.3      27 HOH27 0.0000
     80 H1       2.4891    12.1882     1.2737 H        27 HOH27 0.0000
     81 H2       1.8302    10.8962     0.8397 H        27 HOH27 0.0000
     82 O        2.3787     6.2846    14.6704 O.3      28 HOH28 0.0000
     83 H1       2.0744     7.1868    14.7691 H        28 HOH28 0.0000
     84 H2       2.5667     5.9956    15.5633 H        28 HOH28 0.0000
     85 O       25.4129    10.1814    15.9462 O.3      29 HOH29 0.0000
     86 H1      25.0196    10.8076    15.3384 H        29 HOH29 0.0000
     87 H2      26.2863    10.5322    16.1204 H        29 HOH29 0.0000
     88 O       15.5267     4.9566     4.3900 O.3      30 HOH30 0.0000
     89 H1      15.3211     5.8437     4.6849 H        30 HOH30 0.0000
     90 H2      14.8853     4.7776     3.7024 H        30 HOH30 0.0000
     91 O        6.7707    24.5790    17.9410 O.3      31 HOH31 0.0000
     92 H1       6.3960    23.7271    18.1649 H        31 HOH31 0.0000
     93 H2       7.5028    24.6863    18.5482 H        31 HOH31 0.0000
     94 O       27.9659    20.0101    18.9244 O.3      32 HOH32 0.0000
     95 H1      27.3740    19.8781    19.6650 H        32 HOH32 0.0000
     96 H2      28.7090    19.4347    19.1056 H        32 HOH32 0.0000
     97 O       11.6358    25.4782    19.9344 O.3      33 HOH33 0.0000
     98 H1      12.3571    24.8904    20.1591 H        33 HOH33 0.0000
     99 H2      11.9431    25.9502    19.1604 H        33 HOH33 0.0000
    100 O       23.8045    25.3343    19.5682 O.3      34 HOH34 0.0000
    101 H1      23.0459    25.1181    20.1104 H        34 HOH34 0.0000
    102 H2      23.9115    26.2799    19.6713 H        34 HOH34 0.0000
    103 O       21.7753    14.4028    25.2249 O.3      35 HOH35 0.0000
    104 H1      21.8783    13.6345    25.7864 H        35 HOH35 0.0000
    105 H2      21.5097    15.1024    25.8218 H        35 HOH35 0.0000
    106 O       10.7081    13.7822     1.7735 O.3      36 HOH36 0.0000
    107 H1      11.3648    14.1178     1.1634 H        36 HOH36 0.0000
    108 H2      11.0618    12.9435     2.0695 H        36 HOH36 0.0000
    109 O       23.5402     8.4314    16.5030 O.3      37 HOH37 0.0000
    110 H1      22.7683     8.8113    16.0832 H        37 HOH37 0.0000
    111 H2      24.2240     9.0917    16.3904 H        37 HOH37 0.0000
    112 O       13.2339    25.4383    24.2038 O.3      38 HOH38 0.0000
    113 H1      13.2012    26.3934    24.1491 H        38 HOH38 0.0000
    114 H2      12.7924    25.2299    25.0272 H        38 HOH38 0.0000
    115 O        4.5925    19.8558    14.3477 O.3      39 HOH39 0.0000
    116 H1       4.5627    20.6897    14.8166 H        39 HOH39 0.0000
    117 H2       3.9777    19.9661    13.6224 H        39 HOH39 0.0000
    118 O       20.1488    27.2332    19.4528 O.3      40 HOH40 0.0000
    119 H1      19.4261    27.1547    20.0756 H        40 HOH40 0.0000
    120 H2      20.7778    26.5670    19.7300 H        40 HOH40 0.0000
    121 O        7.3069     0.7848    26.0568 O.3      41 HOH41 0.0000
    122 H1       7.1688     1.7298    26.1209 H        41 HOH41 0.0000
    123 H2       7.0690     0.4484    26.9208 H        41 HOH41 0.0000
    124 O       18.7477     4.9047    20.2066 O.3      42 HOH42 0.0000
    125 H1      18.6506     5.8494    20.0864 H        42 HOH42 0.0000
    126 H2      19.4103     4.6480    19.5652 H        42 HOH42 0.0000
    127 O       21.4129     0.7320     3.5838 O.3      43 HOH43 0.0000
    128 H1      20.7871     1.1389     4.1829 H        43 HOH43 0.0000
    129 H2      22.2620     0.8436     4.0114 H        43 HOH43 0.0000
    130 O       18.1371     2.0779    20.0653 O.3      44 HOH44 0.0000
    131 H1      18.2010     3.0032    20.3022 H        44 HOH44 0.0000
    132 H2      17.7936     1.6523    20.8508 H        44 HOH44 0.0000
    133 O       18.5338    16.3200    18.7285 O.3      45 HOH45 0.0000
    134 H1      19.1509    16.9856    19.0324 H        45 HOH45 0.0000
    135 H2      17.9178    16.2149    19.4535 H        45 HOH45 0.0000
    136 O        9.2712    15.7588    19.0880 O.3      46 HOH46 0.0000
    137 H1       9.1994    16.3812    19.8117 H        46 HOH46 0.0000
    138 H2       8.3769    15.6694    18.7588 H        46 HOH46 0.0000
    139 O       16.4485    27.3369    17.5783 O.3      47 HOH47 0.0000
    140 H1      15.7666    27.7538    17.0516 H        47 HOH47 0.0000
    141 H2      17.2156    27.8982    17.4657 H        47 HOH47 0.0000
    142 O        9.7907    10.3398    11.6919 O.3      48 HOH48 0.0000
    143 H1       9.9879     9.9695    10.8316 H        48 HOH48 0.0000
    144 H2      10.6460    10.5638    12.0586 H        48 HOH48 0.0000
    145 O       18.1209    26.5110    21.3994 O.3      49 HOH49 0.0000
    146 H1      17.2765    26.1827    21.7083 H        49 HOH49 0.0000
    147 H2      18.7685    26.0313    21.9159 H        49 HOH49 0.0000
    148 O        6.7362    19.1088     8.6267 O.3      50 HOH50 0.0000
    149 H1       6.4919    19.8742     8.1064 H        50 HOH50 0.0000
    150 H2       7.0143    19.4697     9.4685 H        50 HOH50 0.0000
    151 O       11.8928    21.6351    13.6241 O.3      51 HOH51 0.0000
    152 H1      11.7502    21.6829    12.6788 H        51 HOH51 0.0000
    153 H2      11.4292    22.3952    13.9755 H        51 HOH51 0.0000
    154 O       24.2589     5.9404     3.3770 O.3      52 HOH52 0.0000
    155 H1      23.8152     6.7161     3.0340 H        52 HOH52 0.0000
    156 H2      25.1177     5.9487     2.9543 H        52 HOH52 0.0000
    157 O        0.9781    11.9494     8.1182 O.3      53 HOH53 0.0000
    158 H1       1.7119    12.5420     7.9548 H        53 HOH53 0.0000
    159 H2       0.5598    11.8442     7.2637 H        53 HOH53 0.0000
    160 O       10.8431     6.8750    11.5288 O.3      54 HOH54 0.0000
    161 H1      10.4930     7.5766    10.9797 H        54 HOH54 0.0000
    162 H2      11.6824     7.2118    11.8423 H        54 HOH54 0.0000
    163 O       26.1008    15.7772    18.5464 O.3      55 HOH55 0.0000
    164 H1      26.3744    16.5092    17.9935 H        55 HOH55 0.0000
    165 H2      26.7246    15.7786    19.2723 H        55 HOH55 0.0000
    166 O        7.7878     0.3876    15.2795 O.3      56 HOH56 0.0000
    167 H1       8.0072    -0.0050    16.1244 H        56 HOH56 0.0000
    168 H2       7.2180     1.1250    15.4983 H        56 HOH56 0.0000
    169 O        3.5711     9.2338    16.2400 O.3      57 HOH57 0.0000
    170 H1       3.4153     8.8708    15.3681 H        57 HOH57 0.0000
    171 H2       4.4714     8.9831    16.4470 H        57 HOH57 0.0000
    172 O        8.7407     5.7264     0.1705 O.3      58 HOH58 0.0000
    173 H1       9.0754     6.3874    -0.4356 H        58 HOH58 0.0000
    174 H2       9.5242     5.3486     0.5701 H        58 HOH58 0.0000
    175 O       17.7509    19.8455    25.7320 O.3      59 HOH59 0.0000
    176 H1      17.3287    20.5530    25.2448 H        59 HOH59 0.0000
    177 H2      17.0346    19.4143    26.1981 H        59 HOH59 0.0000
    178 O        1.2308    16.4519    21.3639 O.3      60 HOH60 0.0000
    179 H1       1.1444    15.6819    21.9260 H        60 HOH60 0.0000
    180 H2       2.1746    16.5555    21.2423 H        60 HOH60 0.0000
    181 O        6.1255    21.8803    18.9355 O.3      61 HOH61 0.0000
    182 H1       6.6269    21.1006    18.6971 H        61 HOH61 0.0000
    183 H2       5.8303    21.7115    19.8303 H        61 HOH61 0.0000
    184 O        6.7679     8.1374    23.6727 O.3      62 HOH62 0.0000
    185 H1       7.2731     7.3906    23.3514 H        62 HOH62 0.0000
    186 H2       7.4113     8.6882    24.1188 H        62 HOH62 0.0000
    187 O       26.8082    23.9750     4.8848 O.3      63 HOH63 0.0000
    188 H1      26.3834    24.8268     4.7835 H        63 HOH63 0.0000
    189 H2      27.3299    24.0604     5.6828 H        63 HOH63 0.0000
    190 O       22.6728     2.0226    14.9999 O.3      64 HOH64 0.0000
    191 H1      22.9425     1.1998    15.4081 H        64 HOH64 0.0000
    192 H2      22.1090     1.7566    14.2735 H        64 HOH64 0.0000
    193 O       21.7145    12.8332     2.6595 O.3      65 HOH65 0.0000
    194 H1      20.8276    13.1932     2.6676 H        65 HOH65 0.0000
    195 H2      22.2827    13.5920     2.7921 H        65 HOH65 0.0000
    196 O       15.2780    27.9918    12.8391 O.3      66 HOH66 0.0000
    197 H1      16.1642    27.8337    12.5138 H        66 HOH66 0.0000
    198 H2      15.2160    28.9441    12.9134 H        66 HOH66 0.0000
    199 O        6.3552    23.5033     3.7145 O.3      67 HOH67 0.0000
    200 H1       6.2043    23.1873     2.8237 H        67 HOH67 0.0000
    201 H2       6.2825    24.4554     3.6469 H        67 HOH67 0.0000
    202 O        0.3587     4.3943    12.6261 O.3      68 HOH68 0.0000
    203 H1       0.3308     4.5043    13.5766 H        68 HOH68 0.0000
    204 H2       0.2579     5.2806    12.2790 H        68 HOH68 0.0000
    205 O       15.0198    16.0466    18.3351 O.3      69 HOH69 0.0000
    206 H1      14.9553    15.7029    19.2261 H        69 HOH69 0.0000
    207 H2      14.6249    16.9172    18.3846 H        69 HOH69 0.0000
    208 O        9.3219    16.3344    12.7093 O.3      70 HOH70 0.0000
    209 H1       9.8543    15.5435    12.6237 H        70 HOH70 0.0000
    210 H2       9.6313    16.9088    12.0089 H        70 HOH70 0.0000
    211 O        3.1351     7.9852    26.5471 O.3      71 HOH71 0.0000
    212 H1       2.6062     8.5252    25.9597 H        71 HOH71 0.0000
    213 H2       3.4883     7.2951    25.9857 H        71 HOH71 0.0000
    214 O       25.4309    20.7876     6.7747 O.3      72 HOH72 0.0000
    215 H1      25.3561    20.5083     5.8622 H        72 HOH72 0.0000
    216 H2      24.8778    20.1750     7.2593 H        72 HOH72 0.0000
    217 O        0.7825    13.8138    23.2607 O.3      73 HOH73 0.0000
    218 H1      -0.1564    13.9936    23.2116 H        73 HOH73 0.0000
    219 H2       0.9049    13.0293    22.7260 H        73 HOH73 0.0000
    220 O       22.0186    24.7887    14.2791 O.3      74 HOH74 0.0000
    221 H1      21.5318    24.8147    15.1029 H        74 HOH74 0.0000
    222 H2      21.3747    25.0269    13.6122 H        74 HOH74 0.0000
    223 O        0.3950    25.1566    13.3588 O.3      75 HOH75 0.0000
    224 H1       0.0764    26.0424    13.1850 H        75 HOH75 0.0000
    225 H2      -0.3984    24.6377    13.4905 H        75 HOH75 0.0000
    226 O       26.3643    11.8278    10.6815 O.3      76 HOH76 0.0000
    227 H1      26.8075    11.8831    11.5281 H        76 HOH76 0.0000
    228 H2      26.5096    12.6837    10.2782 H        76 HOH76 0.0000
    229 O        3.3392    13.5776     0.7163 O.3      77 HOH77 0.0000
    230 H1       3.5485    14.4791     0.9606 H        77 HOH77 0.0000
    231 H2       4.0428    13.3210     0.1201 H        77 HOH77 0.0000
    232 O       24.4198    20.5861    14.8183 O.3      78 HOH78 0.0000
    233 H1      25.1354    20.7727    15.4260 H        78 HOH78 0.0000
    234 H2      24.8103    20.6852    13.9500 H        78 HOH78 0.0000
    235 O       18.9823    13.4373    14.6110 O.3      79 HOH79 0.0000
    236 H1      18.8173    13.9397    13.8131 H        79 HOH79 0.0000
    237 H2      19.7340    13.8699    15.0159 H        79 HOH79 0.0000
    238 O        8.3884    27.2436    20.3597 O.3      80 HOH80 0.0000
    239 H1       9.0663    27.0000    20.9901 H        80 HOH80 0.0000
    240 H2       8.5175    28.1815    20.2189 H        80 HOH80 0.0000
    241 O       27.8303    14.1043    17.1613 O.3      81 HOH81 0.0000
    242 H1      27.1270    14.3644    17.7562 H        81 HOH81 0.0000
    243 H2      28.5615    14.6788    17.3884 H        81 HOH81 0.0000
    244 O       11.3564     2.4272     7.8925 O.3      82 HOH82 0.0000
    245 H1      11.9359     2.8219     8.5441 H        82 HOH82 0.0000
    246 H2      11.1743     1.5511     8.2325 H        82 HOH82 0.0000
    247 O        5.5508     9.2055    26.6922 O.3      83 HOH83 0.0000
    248 H1       5.1296     9.8131    26.0842 H        83 HOH83 0.0000
    249 H2       4.8659     8.5749    26.9145 H        83 HOH83 0.0000
    250 O       20.6553    23.4103    17.5912 O.3      84 HOH84 0.0000
    251 H1      21.6035    23.3908    17.7213 H        84 HOH84 0.0000
    252 H2      20.4940    24.2304    17.1246 H        84 HOH84 0.0000
    253 O        7.8679    27.0129     8.2205 O.3      85 HOH85 0.0000
    254 H1       8.0281    27.0776     7.2791 H        85 HOH85 0.0000
    255 H2       7.6819    26.0857     8.3691 H        85 HOH85 0.0000
    256 O        2.3170    20.4756    13.1659 O.3      86 HOH86 0.0000
    257 H1       2.2487    21.3983    13.4113 H        86 HOH86 0.0000
    258 H2       2.3528    20.4836    12.2094 H        86 HOH86 0.0000
    259 O        5.6475     6.5005    18.4792 O.3      87 HOH87 0.0000
    260 H1       4.7182     6.5862    18.6920 H        87 HOH87 0.0000
    261 H2       5.7229     6.8456    17.5896 H        87 HOH87 0.0000
    262 O       12.1744    22.9272     2.8097 O.3      88 HOH88 0.0000
    263 H1      12.2009    23.5386     2.0737 H        88 HOH88 0.0000
    264 H2      11.2841    23.0034     3.1530 H        88 HOH88 0.0000
    265 O       21.5160    16.1035     9.3971 O.3      89 HOH89 0.0000
    266 H1      21.9310    16.9628     9.4726 H        89 HOH89 0.0000
    267 H2      20.6450    16.2878     9.0456 H        89 HOH89 0.0000
    268 O       10.2022    23.6519    13.9735 O.3      90 HOH90 0.0000
    269 H1      10.0851    24.5206    14.3579 H        90 HOH90 0.0000
    270 H2       9.3210    23.2786    13.9512 H        90 HOH90 0.0000
    271 O       14.5269    21.1478    16.5949 O.3      91 HOH91 0.0000
    272 H1      14.5453    20.8407    15.6884 H        91 HOH91 0.0000
    273 H2      13.8880    20.5811    17.0272 H        91 HOH91 0.0000
    274 O        7.5488    20.4914    10.9079 O.3      92 HOH92 0.0000
    275 H1       8.0873    19.9408    11.4762 H        92 HOH92 0.0000
    276 H2       6.9636    20.9548    11.5072 H        92 HOH92 0.0000
    277 O       21.0984    11.4998    11.3903 O.3      93 HOH93 0.0000
    278 H1      21.4484    12.3894    11.4399 H        93 HOH93 0.0000
    279 H2      21.4395    11.1534    10.5657 H        93 HOH93 0.0000
    280 O       24.7516     0.1016     0.6327 O.3      94 HOH94 0.0000
    281 H1      25.5198     0.1812     0.0671 H        94 HOH94 0.0000
    282 H2      24.0875    -0.3092     0.0791 H        94 HOH94 0.0000
    283 O        0.1104     3.0088     9.9856 O.3      95 HOH95 0.0000
    284 H1      -0.6566     2.5132    10.2724 H        95 HOH95 0.0000
    285 H2       0.8304     2.3791    10.0222 H        95 HOH95 0.0000
    286 O        4.8984    20.7097    21.2004 O.3      96 HOH96 0.0000
    287 H1       5.4468    19.9976    21.5296 H        96 HOH96 0.0000
    288 H2       4.3413    20.9461    21.9420 H        96 HOH96 0.0000
    289 O        1.3680     9.4389    12.2067 O.3      97 HOH97 0.0000
    290 H1       1.6482    10.2934    11.8787 H        97 HOH97 0.0000
    291 H2       1.1175     9.6012    13.1162 H        97 HOH97 0.0000
    292 O       16.5601     2.9409    24.8008 O.3      98 HOH98 0.0000
    293 H1      16.8998     3.1205    25.6775 H        98 HOH98 0.0000
    294 H2      16.2466     3.7889    24.4865 H        98 HOH98 0.0000
    295 O       19.9846    18.7864    19.2394 O.3      99 HOH99 0.0000
    296 H1      19.9251    19.3744    18.4865 H        99 HOH99 0.0000
    297 H2      20.7616    18.2544    19.0677 H        99 HOH99 0.0000
    298 O       15.9412    16.1822    25.0690 O.3     100 HOH100 0.0000
    299 H1      16.6784    16.4348    24.5131 H       100 HOH100 0.0000
    300 H2      15.7716    16.9546    25.6083 H       100 HOH100 0.0000
    301 O       16.5910     9.7956    16.0694 O.3     101 HOH101 0.0000
    302 H1      17.4647     9.4900    16.3132 H       101 HOH101 0.0000
    303 H2      16.7392    10.6532    15.6710 H       101 HOH101 0.0000
    304 O       24.2159    25.2658     2.1487 O.3     102 HOH102 0.0000
    305 H1      24.9279    25.8496     2.4102 H       102 HOH102 0.0000
    306 H2      24.4237    25.0233     1.2463 H       102 HOH102 0.0000
    307 O       13.3032    26.4319    10.8193 O.3     103 HOH103 0.0000
    308 H1      14.1196    26.9299    10.8616 H       103 HOH103 0.0000
    309 H2      12.6620    26.9839    11.2671 H       103 HOH103 0.0000
    310 O       13.9822    13.4531    24.5329 O.3     104 HOH104 0.0000
    311 H1      13.6068    12.6938    24.9786 H       104 HOH104 0.0000
    312 H2      14.3469    13.0992    23.7218 H       104 HOH104 0.0000
    313 O        7.5763     4.2813    18.1451 O.3     105 HOH105 0.0000
    314 H1       7.0905     5.1043    18.0901 H       105 HOH105 0.0000
    315 H2       7.8785     4.2412    19.0524 H       105 HOH105 0.0000
    316 O       21.8501    20.2367    24.1925 O.3     106 HOH106 0.0000
    317 H1      21.2616    20.3753    23.4505 H       106 HOH106 0.0000
    318 H2      22.4082    21.0143    24.2047 H       106 HOH106 0.0000
    319 O       12.7269     6.8649    17.1563 O.3     107 HOH107 0.0000
    320 H1      12.4318     7.7655    17.2908 H       107 HOH107 0.0000
    321 H2      12.1035     6.4994    16.5286 H       107 HOH107 0.0000
    322 O        5.9022    17.5715    14.4899 O.3     108 HOH108 0.0000
    323 H1       6.2649    17.5303    15.3747 H       108 HOH108 0.0000
    324 H2       5.4887    18.4333    14.4399 H       108 HOH108 0.0000
    325 O       19.8033     6.6715     1.6160 O.3     109 HOH109 0.0000
    326 H1      19.7602     5.7191     1.7010 H       109 HOH109 0.0000
    327 H2      18.9058     6.9670     1.7690 H       109 HOH109 0.0000
    328 O        6.8144    21.1916    24.9293 O.3     110 HOH110 0.0000
    329 H1       7.1609    21.1940    24.0370 H       110 HOH110 0.0000
    330 H2       7.5672    21.4078    25.4796 H       110 HOH110 0.0000
    331 O        7.5953    27.6742    11.8228 O.3     111 HOH111 0.0000
    332 H1       7.2830    27.4512    10.9458 H       111 HOH111 0.0000
    333 H2       7.8502    28.5947    11.7598 H       111 HOH111 0.0000
    334 O       11.8537    16.4668    18.3756 O.3     112 HOH112 0.0000
    335 H1      10.9878    16.1647    18.6500 H       112 HOH112 0.0000
    336 H2      12.1745    16.9808    19.1167 H       112 HOH112 0.0000
    337 O        5.0476     2.7260    12.9706 O.3     113 HOH113 0.0000
    338 H1       5.5695     2.2357    12.3355 H       113 HOH113 0.0000
    339 H2       4.2972     3.0451    12.4693 H       113 HOH113 0.0000
    340 O        8.9367     7.7018    16.0630 O.3     114 HOH114 0.0000
    341 H1       8.7741     7.1298    15.3130 H       114 HOH114 0.0000
    342 H2       9.2873     8.5060    15.6801 H       114 HOH114 0.0000
    343 O        4.9025    16.3735    18.0036 O.3     115 HOH115 0.0000
    344 H1       5.7088    16.8638    17.8433 H       115 HOH115 0.0000
    345 H2       4.2044    17.0211    17.9061 H       115 HOH115 0.0000
    346 O       27.4437     9.7226     8.9464 O.3     116 HOH116 0.0000
    347 H1      26.9519    10.1197     9.6652 H       116 HOH116 0.0000
    348 H2      28.1213    10.3650     8.7356 H       116 HOH116 0.0000
    349 O        7.1259    17.5029    16.8372 O.3     117 HOH117 0.0000
    350 H1       7.9119    17.1566    16.4148 H       117 HOH117 0.0000
    351 H2       7.3170    18.4305    16.9762 H       117 HOH117 0.0000
    352 O       24.4692    11.7732     6.8364 O.3     118 HOH118 0.0000
    353 H1      25.3671    12.0620     6.9991 H       118 HOH118 0.0000
    354 H2      24.0074    12.5664     6.5647 H       118 HOH118 0.0000
    355 O        7.0043    22.1122     0.9794 O.3     119 HOH119 0.0000
    356 H1       6.8126    21.3103     0.4933 H       119 HOH119 0.0000
    357 H2       6.7206    22.8184     0.3989 H       119 HOH119 0.0000
    358 O       10.3608    19.8387    20.1129 O.3     120 HOH120 0.0000
    359 H1      11.1045    20.2523    20.5511 H       120 HOH120 0.0000
    360 H2      10.1219    20.4506    19.4167 H       120 HOH120 0.0000
    361 O       15.0290     9.3814    11.8681 O.3     121 HOH121 0.0000
    362 H1      15.4640     9.5353    11.0295 H       121 HOH121 0.0000
    363 H2      15.4578     8.6021    12.2215 H       121 HOH121 0.0000
    364 O       11.2343    19.0665    14.3011 O.3     122 HOH122 0.0000
    365 H1      11.3925    20.0052    14.2012 H       122 HOH122 0.0000
    366 H2      10.7592    18.9899    15.1285 H       122 HOH122 0.0000
    367 O       12.5645    10.0584     6.5413 O.3     123 HOH123 0.0000
    368 H1      12.8922    10.8429     6.1016 H       123 HOH123 0.0000
    369 H2      13.0452    10.0284     7.3685 H       123 HOH123 0.0000
    370 O        8.9614    15.4993     4.5403 O.3     124 HOH124 0.0000
    371 H1       9.8951    15.3613     4.3810 H       124 HOH124 0.0000
    372 H2       8.7383    14.8664     5.2229 H       124 HOH124 0.0000
    373 O        7.7928     0.4563     5.1094 O.3     125 HOH125 0.0000
    374 H1       6.8358     0.4390     5.1226 H       125 HOH125 0.0000
    375 H2       8.0143     1.3783     4.9788 H       125 HOH125 0.0000
    376 O       15.3223     3.8843     7.4469 O.3     126 HOH126 0.0000
    377 H1      15.4402     3.4234     6.6164 H       126 HOH126 0.0000
    378 H2      14.6520     4.5424     7.2632 H       126 HOH126 0.0000
    379 O       22.9770     4.2329    16.4825 O.3     127 HOH127 0.0000
    380 H1      23.4480     4.6235    15.7464 H       127 HOH127 0.0000
    381 H2      22.6804     3.3840    16.1544 H       127 HOH127 0.0000
    382 O       25.0601    23.6749    21.6422 O.3     128 HOH128 0.0000
    383 H1      25.9853    23.8621    21.8011 H       128 HOH128 0.0000
    384 H2      24.8411    24.1895    20.8653 H       128 HOH128 0.0000
    385 O       10.7714     5.1621    16.3811 O.3     129 HOH129 0.0000
    386 H1      10.8732     4.7153    17.2215 H       129 HOH129 0.0000
    387 H2      10.4161     4.4936    15.7953 H       129 HOH129 0.0000
    388 O       26.3082     8.0945    13.7395 O.3     130 HOH130 0.0000
    389 H1      25.9846     8.9406    14.0487 H       130 HOH130 0.0000
    390 H2      25.7646     7.8935    12.9777 H       130 HOH130 0.0000
    391 O       14.5633    14.0908     8.4061 O.3     131 HOH131 0.0000
    392 H1      14.8860    13.8073     9.2615 H       131 HOH131 0.0000
    393 H2      15.0298    13.5388     7.7785 H       131 HOH131 0.0000
    394 O        8.9534    12.9214    17.3607 O.3     132 HOH132 0.0000
    395 H1       8.6031    13.3506    16.5801 H       132 HOH132 0.0000
    396 H2       8.2967    12.2630    17.5877 H       132 HOH132 0.0000
    397 O       21.9805    13.4106    22.5144 O.3     133 HOH133 0.0000
    398 H1      22.5484    12.6856    22.7753 H       133 HOH133 0.0000
    399 H2      21.7775    13.8630    23.3331 H       133 HOH133 0.0000
    400 O        2.6969    21.6819    24.0092 O.3     134 HOH134 0.0000
    401 H1       3.4305    21.0797    24.1329 H       134 HOH134 0.0000
    402 H2       1.9233    21.1184    23.9964 H       134 HOH134 0.0000
    403 O       16.6155    19.7112    20.7391 O.3     135 HOH135 0.0000
    404 H1      15.6870    19.5387    20.5827 H       135 HOH135 0.0000
    405 H2      16.8177    20.4615    20.1801 H       135 HOH135 0.0000
    406 O        8.3456     5.6281    23.4854 O.3     136 HOH136 0.0000
    407 H1       7.9978     5.8505    22.6219 H       136 HOH136 0.0000
    408 H2       7.6384     5.1438    23.9115 H       136 HOH136 0.0000
    409 O        7.3515     6.1195    20.9582 O.3     137 HOH137 0.0000
    410 H1       7.1131     6.1776    20.0330 H       137 HOH137 0.0000
    411 H2       6.6644     6.6056    21.4141 H       137 HOH137 0.0000
    412 O        5.1101    23.6530    25.2451 O.3     138 HOH138 0.0000
    413 H1       5.6259    22.8479    25.2892 H       138 HOH138 0.0000
    414 H2       5.3263    24.0302    24.3923 H       138 HOH138 0.0000
    415 O       10.6182    18.3780    16.9230 O.3     139 HOH139 0.0000
    416 H1       9.9410    17.8631    16.4843 H       139 HOH139 0.0000
    417 H2      11.0030    17.7756    17.5596 H       139 HOH139 0.0000
    418 O       27.0932    12.8745     6.2398 O.3     140 HOH140 0.0000
    419 H1      27.6779    13.6312     6.1969 H       140 HOH140 0.0000
    420 H2      27.0257    12.5717     5.3343 H       140 HOH140 0.0000
    421 O       20.6311     2.1737    25.6533 O.3     141 HOH141 0.0000
    422 H1      21.4083     2.6869    25.8740 H       141 HOH141 0.0000
    423 H2      19.9197     2.5968    26.1341 H       141 HOH141 0.0000
    424 O       19.1619     9.1905    16.5606 O.3     142 HOH142 0.0000
    425 H1      19.6253     9.9067    16.9948 H       142 HOH142 0.0000
    426 H2      19.7372     8.4329    16.6673 H       142 HOH142 0.0000
    427 O       19.2658     4.9609     9.0596 O.3     143 HOH143 0.0000
    428 H1      19.5222     4.1402     8.6390 H       143 HOH143 0.0000
    429 H2      19.0466     4.7120     9.9575 H       143 HOH143 0.0000
    430 O       15.8836     5.1504    17.7959 O.3     144 HOH144 0.0000
    431 H1      16.5347     5.7578    17.4447 H       144 HOH144 0.0000
    432 H2      15.5420     5.5889    18.5751 H       144 HOH144 0.0000
    433 O       22.4028    19.2210    15.9986 O.3     145 HOH145 0.0000
    434 H1      22.9690    18.9934    16.7361 H       145 HOH145 0.0000
    435 H2      22.9632    19.7319    15.4146 H       145 HOH145 0.0000
    436 O       13.5846    23.5875    19.7574 O.3     146 HOH146 0.0000
    437 H1      14.1436    23.2449    19.0600 H       146 HOH146 0.0000
    438 H2      14.0313    24.3798    20.0557 H       146 HOH146 0.0000
    439 O       22.8205     8.0402     2.2190 O.3     147 HOH147 0.0000
    440 H1      22.4524     8.8850     2.4782 H       147 HOH147 0.0000
    441 H2      22.1120     7.4140     2.3676 H       147 HOH147 0.0000
    442 O        4.6679    27.3440    24.7979 O.3     148 HOH148 0.0000
    443 H1       5.6136    27.2040    24.7509 H       148 HOH148 0.0000
    444 H2       4.5657    28.1004    25.3756 H       148 HOH148 0.0000
    445 O       12.8019    20.0930     1.5010 O.3     149 HOH149 0.0000
    446 H1      12.2358    20.7256     1.9433 H       149 HOH149 0.0000
    447 H2      12.6259    19.2628     1.9437 H       149 HOH149 0.0000
    448 O       12.1055    21.5866    20.7755 O.3     150 HOH150 0.0000
    449 H1      12.5804    22.1995    20.2142 H       150 HOH150 0.0000
    450 H2      12.0617    22.0242    21.6256 H       150 HOH150 0.0000
    451 O        2.2193    23.4130    14.3564 O.3     151 HOH151 0.0000
    452 H1       1.8192    24.1409    13.8807 H       151 HOH151 0.0000
    453 H2       1.5494    23.1383    14.9824 H       151 HOH151 0.0000
    454 O        2.8509     7.3354    19.3299 O.3     152 HOH152 0.0000
    455 H1       2.9512     8.2536    19.0788 H       152 HOH152 0.0000
    456 H2       2.3145     7.3605    20.1223 H       152 HOH152 0.0000
    457 O       23.2991     7.0342     8.2695 O.3     153 HOH153 0.0000
    458 H1      24.1388     7.4146     8.5269 H       153 HOH153 0.0000
    459 H2      23.1038     7.4348     7.4224 H       153 HOH153 0.0000
    460 O       12.2694     5.3728    26.3180 O.3     154 HOH154 0.0000
    461 H1      12.3015     5.1159    27.2395 H       154 HOH154 0.0000
    462 H2      11.4733     5.8989    26.2432 H       154 HOH154 0.0000
    463 O        0.6617     8.4418     5.7655 O.3     155 HOH155 0.0000
    464 H1      -0.2657     8.2255     5.6687 H       155 HOH155 0.0000
    465 H2       0.8710     8.9553     4.9853 H       155 HOH155 0.0000
    466 O       15.1108     9.5575    22.1918 O.3     156 HOH156 0.0000
    467 H1      14.2192     9.4793    21.8523 H       156 HOH156 0.0000
    468 H2      15.1818    10.4702    22.4714 H       156 HOH156 0.0000
    469 O        1.2825    16.8553    12.8656 O.3     157 HOH157 0.0000
    470 H1       1.8843    16.6454    12.1514 H       157 HOH157 0.0000
    471 H2       1.7796    16.6668    13.6615 H       157 HOH157 0.0000
    472 O       25.5845    23.7932     0.0937 O.3     158 HOH158 0.0000
    473 H1      26.1306    23.6744     0.8708 H       158 HOH158 0.0000
    474 H2      26.2029    24.0143    -0.6027 H       158 HOH158 0.0000
    475 O       18.6843    15.9186    27.2387 O.3     159 HOH159 0.0000
    476 H1      18.3416    16.5463    27.8749 H       159 HOH159 0.0000
    477 H2      18.3320    16.2120    26.3984 H       159 HOH159 0.0000
    478 O        5.3884    12.5754    15.6344 O.3     160 HOH160 0.0000
    479 H1       4.8251    13.1957    16.0973 H       160 HOH160 0.0000
    480 H2       4.9549    12.4401    14.7919 H       160 HOH160 0.0000
    481 O       24.5481    18.9285    18.1226 O.3     161 HOH161 0.0000
    482 H1      25.3223    18.5606    17.6966 H       161 HOH161 0.0000
    483 H2      24.8944    19.4160    18.8701 H       161 HOH161 0.0000
    484 O       10.4603    20.7875    24.0846 O.3     162 HOH162 0.0000
    485 H1       9.8024    20.6635    24.7687 H       162 HOH162 0.0000
    486 H2      10.9639    21.5494    24.3712 H       162 HOH162 0.0000
    487 O       25.4181    22.3855    10.9380 O.3     163 HOH163 0.0000
    488 H1      25.6748    22.8602    11.7285 H       163 HOH163 0.0000
    489 H2      25.8840    22.8295    10.2294 H       163 HOH163 0.0000
    490 O       12.1818    20.3862    17.7879 O.3     164 HOH164 0.0000
    491 H1      11.8238    19.5439    17.5074 H       164 HOH164 0.0000
    492 H2      11.5143    21.0255    17.5391 H       164 HOH164 0.0000
    493 O       17.2321    20.6005    11.4657 O.3     165 HOH165 0.0000
    494 H1      17.4712    21.5231    11.3767 H       165 HOH165 0.0000
    495 H2      16.5740    20.5891    12.1607 H       165 HOH165 0.0000
    496 O        3.9352    25.7109     9.8324 O.3     166 HOH166 0.0000
    497 H1       3.4087    25.4884     9.0647 H       166 HOH166 0.0000
    498 H2       4.2959    26.5750     9.6338 H       166 HOH166 0.0000
    499 O       21.7204     4.9596     4.1090 O.3     167 HOH167 0.0000
    500 H1      21.9080     4.3330     3.4102 H       167 HOH167 0.0000
    501 H2      22.4748     5.5488     4.1120 H       167 HOH167 0.0000
    502 O        4.3659     1.7806     2.1518 O.3     168 HOH168 0.0000
    503 H1       4.4103     2.6254     1.7040 H       168 HOH168 0.0000
    504 H2       3.4643     1.4868     2.0213 H       168 HOH168 0.0000
    505 O       12.9509     6.3918    23.8891 O.3     169 HOH169 0.0000
    506 H1      12.4447     5.7335    24.3651 H       169 HOH169 0.0000
    507 H2      13.0227     7.1263    24.4987 H       169 HOH169 0.0000
    508 O       14.9196    13.1113    10.7789 O.3     170 HOH170 0.0000
    509 H1      14.6861    13.4708    11.6347 H       170 HOH170 0.0000
    510 H2      15.8114    12.7823    10.8919 H       170 HOH170 0.0000
    511 O       20.7343    13.4739     6.4520 O.3     171 HOH171 0.0000
    512 H1      20.3144    14.1265     5.8917 H       171 HOH171 0.0000
    513 H2      20.4432    13.6943     7.3368 H       171 HOH171 0.0000
    514 O        7.2541    10.7154    15.6481 O.3     172 HOH172 0.0000
    515 H1       6.9588    10.2689    14.8546 H       172 HOH172 0.0000
    516 H2       6.6857    11.4824    15.7176 H       172 HOH172 0.0000
    517 O       27.5999    23.7548     2.2156 O.3     173 HOH173 0.0000
    518 H1      27.5483    22.8214     2.0097 H       173 HOH173 0.0000
    519 H2      27.1289    23.8441     3.0441 H       173 HOH173 0.0000
    520 O       26.2291    22.3402    25.2511 O.3     174 HOH174 0.0000
    521 H1      26.8830    23.0179    25.4228 H       174 HOH174 0.0000
    522 H2      25.5499    22.4901    25.9087 H       174 HOH174 0.0000
    523 O        0.8494     9.8562    27.8562 O.3     175 HOH175 0.0000
    524 H1      -0.0294     9.7225    27.5012 H       175 HOH175 0.0000
    525 H2       1.0390     9.0506    28.3371 H       175 HOH175 0.0000
    526 O        1.6853     2.8394     6.2686 O.3     176 HOH176 0.0000
    527 H1       2.5593     2.9601     5.8976 H       176 HOH176 0.0000
    528 H2       1.3254     3.7244     6.3281 H       176 HOH176 0.0000
    529 O       23.9136    27.7872    10.8755 O.3     177 HOH177 0.0000
    530 H1      24.5839    27.2513    10.4514 H       177 HOH177 0.0000
    531 H2      24.0366    28.6617    10.5064 H       177 HOH177 0.0000
    532 O        9.0510     3.0293    16.0719 O.3     178 HOH178 0.0000
    533 H1       9.4085     2.9490    16.9562 H       178 HOH178 0.0000
    534 H2       8.1038     3.0810    16.1998 H       178 HOH178 0.0000
    535 O       27.4719    11.7785    13.2708 O.3     179 HOH179 0.0000
    536 H1      27.6954    11.7037    14.1985 H       179 HOH179 0.0000
    537 H2      27.9306    12.5652    12.9761 H       179 HOH179 0.0000
    538 O       17.2767    12.4355    19.7453 O.3     180 HOH180 0.0000
    539 H1      17.4265    12.8129    18.8785 H       180 HOH180 0.0000
    540 H2      18.0420    12.6981    20.2569 H       180 HOH180 0.0000
    541 O       12.0939     9.0308    25.0440 O.3     181 HOH181 0.0000
    542 H1      11.3263     8.8981    24.4877 H       181 HOH181 0.0000
    543 H2      12.1646     9.9812    25.1327 H       181 HOH181 0.0000
    544 O       26.7042    21.2521    22.7655 O.3     182 HOH182 0.0000
    545 H1      27.0520    21.9850    22.2574 H       182 HOH182 0.0000
    546 H2      26.2479    21.6639    23.4993 H       182 HOH182 0.0000
    547 O       11.0124     5.2017     3.8364 O.3     183 HOH183 0.0000
    548 H1      10.0811     5.3290     3.6553 H       183 HOH183 0.0000
    549 H2      11.2876     6.0143     4.2607 H       183 HOH183 0.0000
    550 O        2.8134    21.6417     0.5073 O.3     184 HOH184 0.0000
    551 H1       3.0231    22.0539     1.3454 H       184 HOH184 0.0000
    552 H2       2.8087    22.3640    -0.1208 H       184 HOH184 0.0000
    553 O        8.4416     6.6311    13.4631 O.3     185 HOH185 0.0000
    554 H1       9.0723     6.8788    12.7871 H       185 HOH185 0.0000
    555 H2       8.6570     5.7219    13.6708 H       185 HOH185 0.0000
    556 O       19.7841    22.9167    20.0472 O.3     186 HOH186 0.0000
    557 H1      19.7286    23.2376    19.1471 H       186 HOH186 0.0000
    558 H2      20.5575    22.3528    20.0537 H       186 HOH186 0.0000
    559 O       17.8699     6.5799    16.3839 O.3     187 HOH187 0.0000
    560 H1      18.7046     6.2369    16.0647 H       187 HOH187 0.0000
    561 H2      17.9800     7.5306    16.3699 H       187 HOH187 0.0000
    562 O        9.0319    19.1576    12.6444 O.3     188 HOH188 0.0000
    563 H1       8.9426    18.3998    13.2224 H       188 HOH188 0.0000
    564 H2       9.9766    19.2667    12.5358 H       188 HOH188 0.0000
    565 O        6.8106     8.7304     3.9650 O.3     189 HOH189 0.0000
    566 H1       6.3358     9.3019     3.3615 H       189 HOH189 0.0000
    567 H2       6.1406     8.4093     4.5686 H       189 HOH189 0.0000
    568 O       11.8679     2.0964    16.1148 O.3     190 HOH190 0.0000
    569 H1      12.4231     2.7872    15.7533 H       190 HOH190 0.0000
    570 H2      11.7200     2.3582    17.0235 H       190 HOH190 0.0000
    571 O        7.6933    23.0874    12.4933 O.3     191 HOH191 0.0000
    572 H1       7.0590    23.2979    11.8081 H       191 HOH191 0.0000
    573 H2       8.3461    23.7854    12.4387 H       191 HOH191 0.0000
    574 O       15.7946    27.9862    24.9932 O.3     192 HOH192 0.0000
    575 H1      15.4253    27.9666    25.8761 H       192 HOH192 0.0000
    576 H2      15.7210    28.9013    24.7225 H       192 HOH192 0.0000
    577 O       10.3411    26.3233    22.1908 O.3     193 HOH193 0.0000
    578 H1      10.7331    25.8969    21.4287 H       193 HOH193 0.0000
    579 H2      10.9820    26.9845    22.4521 H       193 HOH193 0.0000
    580 O       13.4149    25.0691    16.8032 O.3     194 HOH194 0.0000
    581 H1      13.5624    25.4989    15.9608 H       194 HOH194 0.0000
    582 H2      13.1322    25.7739    17.3860 H       194 HOH194 0.0000
    583 O        3.6827     8.4221    13.1722 O.3     195 HOH195 0.0000
    584 H1       2.8112     8.6326    12.8369 H       195 HOH195 0.0000
    585 H2       3.9770     7.6887    12.6321 H       195 HOH195 0.0000
    586 O        9.1381    27.0132    25.4529 O.3     196 HOH196 0.0000
    587 H1       8.4687    27.5143    25.9188 H       196 HOH196 0.0000
    588 H2       8.9589    27.1765    24.5269 H       196 HOH196 0.0000
    589 O        1.0805     0.6437    14.1366 O.3     197 HOH197 0.0000
    590 H1       1.8473     1.1735    14.3548 H       197 HOH197 0.0000
    591 H2       1.4367    -0.1150    13.6743 H       197 HOH197 0.0000
    592 O       27.6952    18.9575     8.2782 O.3     198 HOH198 0.0000
    593 H1      27.0003    19.3932     7.7847 H       198 HOH198 0.0000
    594 H2      28.0486    19.6400     8.8487 H       198 HOH198 0.0000
    595 O       20.8150    25.8874     4.9022 O.3     199 HOH199 0.0000
    596 H1      20.2803    25.1370     4.6430 H       199 HOH199 0.0000
    597 H2      20.2928    26.6508     4.6558 H       199 HOH199 0.0000
    598 O       19.0545    26.0293    10.1010 O.3     200 HOH200 0.0000
    599 H1      19.7502    26.6033     9.7805 H       200 HOH200 0.0000
    600 H2      19.4299    25.1498    10.0576 H       200 HOH200 0.0000
    601 O       13.9002    10.9819    14.3065 O.3     201 HOH201 0.0000
    602 H1      14.8195    11.1794    14.4856 H       201 HOH201 0.0000
    603 H2      13.5146    10.8306    15.1695 H       201 HOH201 0.0000
    604 O        8.3221     9.3397     7.0860 O.3     202 HOH202 0.0000
    605 H1       7.9861    10.2194     7.2576 H       202 HOH202 0.0000
    606 H2       7.9756     9.1146     6.2226 H       202 HOH202 0.0000
    607 O       22.3839     9.7757    26.0157 O.3     203 HOH203 0.0000
    608 H1      21.6589    10.0178    26.5919 H       203 HOH203 0.0000
    609 H2      22.6246    10.5917    25.5771 H       203 HOH203 0.0000
    610 O       15.9893    25.8525    23.0292 O.3     204 HOH204 0.0000
    611 H1      15.4471    25.1718    23.4278 H       204 HOH204 0.0000
    612 H2      16.0917    26.5108    23.7165 H       204 HOH204 0.0000
    613 O       18.7123     8.1830    10.6901 O.3     205 HOH205 0.0000
    614 H1      18.5293     7.4898    11.3243 H       205 HOH205 0.0000
    615 H2      19.4814     7.8736    10.2117 H       205 HOH205 0.0000
    616 O       19.8793     0.5758    23.3370 O.3     206 HOH206 0.0000
    617 H1      20.1162     1.0072    24.1579 H       206 HOH206 0.0000
    618 H2      20.4127     1.0132    22.6734 H       206 HOH206 0.0000
    619 O        2.6307     6.8128    10.3620 O.3     207 HOH207 0.0000
    620 H1       1.7733     6.6385    10.7501 H       207 HOH207 0.0000
    621 H2       2.4499     7.4175     9.6423 H       207 HOH207 0.0000
    622 O       10.2659    25.9607    15.2550 O.3     208 HOH208 0.0000
    623 H1       9.8051    26.6432    14.7672 H       208 HOH208 0.0000
    624 H2      10.1026    26.1710    16.1744 H       208 HOH208 0.0000
    625 O        8.8619    24.4541    26.6078 O.3     209 HOH209 0.0000
    626 H1       8.0459    24.5815    27.0917 H       209 HOH209 0.0000
    627 H2       9.0766    25.3223    26.2666 H       209 HOH209 0.0000
    628 O       23.3522    14.1867     6.1459 O.3     210 HOH210 0.0000
    629 H1      23.1140    14.8858     5.5371 H       210 HOH210 0.0000
    630 H2      22.5147    13.8492     6.4635 H       210 HOH210 0.0000
    631 O        0.0561     7.0132    11.2466 O.3     211 HOH211 0.0000
    632 H1      -0.7832     7.2294    11.6528 H       211 HOH211 0.0000
    633 H2       0.6106     7.7734    11.4224 H       211 HOH211 0.0000
    634 O        5.3878     3.3367     7.7306 O.3     212 HOH212 0.0000
    635 H1       5.0347     4.1432     8.1062 H       212 HOH212 0.0000
    636 H2       6.0453     3.0455     8.3625 H       212 HOH212 0.0000
    637 O        8.8710    22.2425     9.3682 O.3     213 HOH213 0.0000
    638 H1       8.8573    21.8657     8.4884 H       213 HOH213 0.0000
    639 H2       8.5229    21.5509     9.9310 H       213 HOH213 0.0000
    640 O        2.7875     3.5875    11.6544 O.3     214 HOH214 0.0000
    641 H1       1.9531     3.8452    12.0462 H       214 HOH214 0.0000
    642 H2       2.5778     2.8152    11.1293 H       214 HOH214 0.0000
    643 O       26.6885    16.7279     4.6995 O.3     215 HOH215 0.0000
    644 H1      26.2595    17.0070     5.5084 H       215 HOH215 0.0000
    645 H2      25.9833    16.3556     4.1700 H       215 HOH215 0.0000
    646 O       19.3605    12.9788    21.4261 O.3     216 HOH216 0.0000
    647 H1      20.2910    13.1543    21.5662 H       216 HOH216 0.0000
    648 H2      19.1346    12.3333    22.0959 H       216 HOH216 0.0000
    649 O       22.1635    17.4089    18.3473 O.3     217 HOH217 0.0000
    650 H1      22.8392    18.0816    18.4330 H       217 HOH217 0.0000
    651 H2      22.5437    16.7611    17.7540 H       217 HOH217 0.0000
    652 O        9.4669    18.0436     4.8209 O.3     218 HOH218 0.0000
    653 H1       9.8600    18.1054     3.9503 H       218 HOH218 0.0000
    654 H2       9.0634    17.1759     4.8410 H       218 HOH218 0.0000
    655 O       18.5677     3.2917    27.2390 O.3     219 HOH219 0.0000
    656 H1      18.0415     2.6073    27.6523 H       219 HOH219 0.0000
    657 H2      18.6788     3.9539    27.9212 H       219 HOH219 0.0000
    658 O       14.0490    20.4165    23.6523 O.3     220 HOH220 0.0000
    659 H1      13.3175    20.9518    23.3446 H       220 HOH220 0.0000
    660 H2      13.6375    19.7167    24.1595 H       220 HOH220 0.0000
    661 O       22.4433     8.2755     5.8338 O.3     221 HOH221 0.0000
    662 H1      21.5568     7.9178     5.7840 H       221 HOH221 0.0000
    663 H2      22.3164     9.2073     6.0128 H       221 HOH221 0.0000
    664 O       18.3414    10.4546    12.4375 O.3     222 HOH222 0.0000
    665 H1      19.0352    10.4290    13.0965 H       222 HOH222 0.0000
    666 H2      18.5231     9.7066    11.8685 H       222 HOH222 0.0000
    667 O        0.1713    25.3458     6.9765 O.3     223 HOH223 0.0000
    668 H1       1.1267    25.3810     7.0221 H       223 HOH223 0.0000
    669 H2      -0.1081    26.2541     7.0911 H       223 HOH223 0.0000
    670 O       26.5705    17.0414    10.2596 O.3     224 HOH224 0.0000
    671 H1      27.1771    17.2793     9.5584 H       224 HOH224 0.0000
    672 H2      26.0646    16.3117     9.9020 H       224 HOH224 0.0000
    673 O        4.1932     2.8020    23.4472 O.3     225 HOH225 0.0000
    674 H1       3.6943     3.3239    22.8187 H       225 HOH225 0.0000
    675 H2       4.4249     2.0064    22.9682 H       225 HOH225 0.0000
    676 O       11.9442    22.6172    25.6882 O.3     226 HOH226 0.0000
    677 H1      12.6495    22.2285    26.2057 H       226 HOH226 0.0000
    678 H2      11.1770    22.5760    26.2591 H       226 HOH226 0.0000
    679 O       19.5552    23.0469    25.5969 O.3     227 HOH227 0.0000
    680 H1      19.3561    23.0192    24.6610 H       227 HOH227 0.0000
    681 H2      19.3878    22.1561    25.9044 H       227 HOH227 0.0000
    682 O       27.1592    26.5700    24.0633 O.3     228 HOH228 0.0000
    683 H1      27.6737    27.0695    23.4292 H       228 HOH228 0.0000
    684 H2      26.3662    26.3230    23.5876 H       228 HOH228 0.0000
    685 O       24.3529     2.4446    18.7908 O.3     229 HOH229 0.0000
    686 H1      25.1087     2.7283    18.2765 H       229 HOH229 0.0000
    687 H2      23.6046     2.8708    18.3729 H       229 HOH229 0.0000
    688 O        5.0341     7.8778     5.6147 O.3     230 HOH230 0.0000
    689 H1       5.1514     8.3104     6.4605 H       230 HOH230 0.0000
    690 H2       4.4606     7.1348     5.8026 H       230 HOH230 0.0000
    691 O       17.8569    13.6735    17.3912 O.3     231 HOH231 0.0000
    692 H1      18.0911    14.5480    17.7021 H       231 HOH231 0.0000
    693 H2      18.4764    13.4966    16.6833 H       231 HOH231 0.0000
    694 O       26.2771     3.1492    17.2000 O.3     232 HOH232 0.0000
    695 H1      26.5154     4.0729    17.1217 H       232 HOH232 0.0000
    696 H2      27.0514     2.6751    16.8969 H       232 HOH232 0.0000
    697 O       18.8845     0.7156    17.5387 O.3     233 HOH233 0.0000
    698 H1      18.4136     1.4718    17.8888 H       233 HOH233 0.0000
    699 H2      19.1157     0.1985    18.3103 H       233 HOH233 0.0000
    700 O        9.7451     4.8470     8.7861 O.3     234 HOH234 0.0000
    701 H1       9.0864     4.7428     9.4727 H       234 HOH234 0.0000
    702 H2      10.5799     4.6955     9.2293 H       234 HOH234 0.0000
    703 O        4.0920    25.0074    12.8636 O.3     235 HOH235 0.0000
    704 H1       4.7635    25.4428    13.3887 H       235 HOH235 0.0000
    705 H2       3.6036    24.4754    13.4918 H       235 HOH235 0.0000
    706 O       19.7783     3.9279     1.8623 O.3     236 HOH236 0.0000
    707 H1      20.7342     3.9633     1.8267 H       236 HOH236 0.0000
    708 H2      19.5638     4.1428     2.7701 H       236 HOH236 0.0000
    709 O       11.6088    14.9321     4.5732 O.3     237 HOH237 0.0000
    710 H1      12.2185    14.3570     4.1108 H       237 HOH237 0.0000
    711 H2      12.0910    15.2192     5.3486 H       237 HOH237 0.0000
    712 O        4.8341     1.1209    17.5211 O.3     238 HOH238 0.0000
    713 H1       4.9266     1.8307    18.1567 H       238 HOH238 0.0000
    714 H2       5.0663     0.3305    18.0086 H       238 HOH238 0.0000
    715 O       13.9413    10.3697     8.9809 O.3     239 HOH239 0.0000
    716 H1      14.8078     9.9690     9.0504 H       239 HOH239 0.0000
    717 H2      13.9948    11.1534     9.5278 H       239 HOH239 0.0000
    718 O        3.5037     9.6435    22.7878 O.3     240 HOH240 0.0000
    719 H1       3.8140    10.4846    22.4525 H       240 HOH240 0.0000
    720 H2       3.3665     9.7938    23.7231 H       240 HOH240 0.0000
    721 O       18.0676    20.8181     2.0070 O.3     241 HOH241 0.0000
    722 H1      17.8558    21.5138     1.3847 H       241 HOH241 0.0000
    723 H2      17.2533    20.3236     2.1005 H       241 HOH241 0.0000
    724 O        2.7228    17.7756     4.5179 O.3     242 HOH242 0.0000
    725 H1       2.5624    18.2787     5.3163 H       242 HOH242 0.0000
    726 H2       2.1448    17.0163     4.5926 H       242 HOH242 0.0000
    727 O       22.0672    10.9802     5.7971 O.3     243 HOH243 0.0000
    728 H1      22.9894    11.1094     6.0185 H       243 HOH243 0.0000
    729 H2      21.7237    11.8651     5.6739 H       243 HOH243 0.0000
    730 O       17.1582    21.6957    19.1258 O.3     244 HOH244 0.0000
    731 H1      17.9696    21.8015    18.6293 H       244 HOH244 0.0000
    732 H2      16.5054    22.1862    18.6262 H       244 HOH244 0.0000
    733 O       11.5664    13.0039     8.0258 O.3     245 HOH245 0.0000
    734 H1      12.1526    12.8834     7.2787 H       245 HOH245 0.0000
    735 H2      11.7057    12.2274     8.5678 H       245 HOH245 0.0000
    736 O        3.1687    12.3801     4.4578 O.3     246 HOH246 0.0000
    737 H1       3.7028    12.0306     5.1711 H       246 HOH246 0.0000
    738 H2       2.5515    11.6775     4.2535 H       246 HOH246 0.0000
    739 O       21.4859     7.1245    22.4112 O.3     247 HOH247 0.0000
    740 H1      21.9457     7.5523    23.1335 H       247 HOH247 0.0000
    741 H2      21.3874     7.8096    21.7501 H       247 HOH247 0.0000
    742 O       13.1493     7.9788     9.7487 O.3     248 HOH248 0.0000
    743 H1      12.4825     7.4907     9.2657 H       248 HOH248 0.0000
    744 H2      13.1061     8.8647     9.3887 H       248 HOH248 0.0000
    745 O       12.1943     4.3525     9.7872 O.3     249 HOH249 0.0000
    746 H1      12.5894     5.2225     9.8441 H       249 HOH249 0.0000
    747 H2      12.8074     3.7799    10.2482 H       249 HOH249 0.0000
    748 O       26.8108    18.2902     1.1616 O.3     250 HOH250 0.0000
    749 H1      27.4145    18.1963     1.8984 H       250 HOH250 0.0000
    750 H2      26.2798    19.0554     1.3825 H       250 HOH250 0.0000
    751 O        9.0153    27.1415    17.4809 O.3     251 HOH251 0.0000
    752 H1       9.7788    27.5188    17.9179 H       251 HOH251 0.0000
    753 H2       8.9083    26.2806    17.8855 H       251 HOH251 0.0000
    754 O       14.2130     1.1009    27.0019 O.3     252 HOH252 0.0000
    755 H1      14.2901     0.8948    27.9335 H       252 HOH252 0.0000
    756 H2      14.2157     2.0574    26.9667 H       252 HOH252 0.0000
    757 O       27.0266    17.9173    17.4241 O.3     253 HOH253 0.0000
    758 H1      27.3401    18.7259    17.8293 H       253 HOH253 0.0000
    759 H2      26.9861    18.1175    16.4890 H       253 HOH253 0.0000
    760 O        4.3118     3.0940     5.4442 O.3     254 HOH254 0.0000
    761 H1       4.7615     3.0869     6.2892 H       254 HOH254 0.0000
    762 H2       4.9413     3.4886     4.8407 H       254 HOH254 0.0000
    763 O       25.7752     7.6823     8.7188 O.3     255 HOH255 0.0000
    764 H1      26.3674     8.4165     8.5558 H       255 HOH255 0.0000
    765 H2      26.3313     6.9061     8.6523 H       255 HOH255 0.0000
    766 O       27.4386    17.3690    23.6390 O.3     256 HOH256 0.0000
    767 H1      27.6714    17.2985    22.7132 H       256 HOH256 0.0000
    768 H2      27.8155    18.2034    23.9183 H       256 HOH256 0.0000
    769 O        6.2351     4.3611    24.5115 O.3     257 HOH257 0.0000
    770 H1       5.7189     3.6875    24.0689 H       257 HOH257 0.0000
    771 H2       6.1325     4.1684    25.4435 H       257 HOH257 0.0000
    772 O       15.6548     7.0230    13.0179 O.3     258 HOH258 0.0000
    773 H1      16.6068     7.0747    13.1028 H       258 HOH258 0.0000
    774 H2      15.3330     7.0229    13.9194 H       258 HOH258 0.0000
    775 O       27.1413    10.6511     3.6580 O.3     259 HOH259 0.0000
    776 H1      26.4193    10.0563     3.4549 H       259 HOH259 0.0000
    777 H2      26.8878    11.4822     3.2565 H       259 HOH259 0.0000
    778 O       20.0684    20.5550    17.2021 O.3     260 HOH260 0.0000
    779 H1      20.2477    21.4904    17.1071 H       260 HOH260 0.0000
    780 H2      20.6344    20.1351    16.5544 H       260 HOH260 0.0000
    781 O       16.4402    26.7160    10.1317 O.3     261 HOH261 0.0000
    782 H1      17.3696    26.5041    10.0450 H       261 HOH261 0.0000
    783 H2      16.2862    27.3939     9.4737 H       261 HOH261 0.0000
    784 O        5.8645    13.8286    27.2584 O.3     262 HOH262 0.0000
    785 H1       5.7903    13.9357    26.3101 H       262 HOH262 0.0000
    786 H2       6.4367    14.5437    27.5366 H       262 HOH262 0.0000
    787 O        8.3144    24.2525    22.4804 O.3     263 HOH263 0.0000
    788 H1       9.1130    24.7788    22.5179 H       263 HOH263 0.0000
    789 H2       7.6067    24.8941    22.4199 H       263 HOH263 0.0000
    790 O       18.4496     5.6999    25.0525 O.3     264 HOH264 0.0000
    791 H1      19.0990     5.4936    24.3802 H       264 HOH264 0.0000
    792 H2      18.3611     4.8911    25.5567 H       264 HOH264 0.0000
    793 O       27.3027     5.6589    16.7606 O.3     265 HOH265 0.0000
    794 H1      27.1874     6.5705    17.0291 H       265 HOH265 0.0000
    795 H2      28.2114     5.4564    16.9829 H       265 HOH265 0.0000
    796 O       14.9944     0.9769    21.5914 O.3     266 HOH266 0.0000
    797 H1      15.0669     1.7371    21.0143 H       266 HOH266 0.0000
    798 H2      15.8112     0.9756    22.0904 H       266 HOH266 0.0000
    799 O       23.2181    22.4690    23.2011 O.3     267 HOH267 0.0000
    800 H1      22.8543    21.9454    22.4871 H       267 HOH267 0.0000
    801 H2      23.9182    22.9782    22.7926 H       267 HOH267 0.0000
    802 O       25.9568    16.2477    12.9151 O.3     268 HOH268 0.0000
    803 H1      26.3216    16.4274    12.0486 H       268 HOH268 0.0000
    804 H2      25.0185    16.1363    12.7621 H       268 HOH268 0.0000
    805 O       27.9566     0.1082     0.4348 O.3     269 HOH269 0.0000
    806 H1      27.5978    -0.0746    -0.4336 H       269 HOH269 0.0000
    807 H2      28.2598     1.0147     0.3833 H       269 HOH269 0.0000
    808 O       18.3479     6.2870    12.6892 O.3     270 HOH270 0.0000
    809 H1      18.3014     5.5250    12.1116 H       270 HOH270 0.0000
    810 H2      18.6704     5.9387    13.5204 H       270 HOH270 0.0000
    811 O       10.2887     2.7950    23.0627 O.3     271 HOH271 0.0000
    812 H1       9.7681     3.5841    23.2129 H       271 HOH271 0.0000
    813 H2      11.0696     2.9163    23.6029 H       271 HOH271 0.0000
    814 O       18.0441    22.9940     5.7607 O.3     272 HOH272 0.0000
    815 H1      18.2431    23.3786     4.9071 H       272 HOH272 0.0000
    816 H2      17.8782    22.0698     5.5747 H       272 HOH272 0.0000
    817 O        8.3727    16.4906     8.1673 O.3     273 HOH273 0.0000
    818 H1       9.1746    17.0084     8.0954 H       273 HOH273 0.0000
    819 H2       7.6662    17.1226     8.0343 H       273 HOH273 0.0000
    820 O       20.0471    10.3108    27.6278 O.3     274 HOH274 0.0000
    821 H1      19.3371    10.0331    27.0491 H       274 HOH274 0.0000
    822 H2      19.8243     9.9338    28.4790 H       274 HOH274 0.0000
    823 O       12.4119     3.2934    24.5306 O.3     275 HOH275 0.0000
    824 H1      12.3276     3.8484    25.3060 H       275 HOH275 0.0000
    825 H2      13.2731     3.5099    24.1730 H       275 HOH275 0.0000
    826 O        4.6006    11.4271     6.7582 O.3     276 HOH276 0.0000
    827 H1       4.4537    10.6197     7.2509 H       276 HOH276 0.0000
    828 H2       5.5515    11.4804     6.6628 H       276 HOH276 0.0000
    829 O       17.3104    19.8361     8.8861 O.3     277 HOH277 0.0000
    830 H1      16.3912    19.6607     9.0878 H       277 HOH277 0.0000
    831 H2      17.6368    20.3128     9.6492 H       277 HOH277 0.0000
    832 O        7.3344    10.9833    18.4889 O.3     278 HOH278 0.0000
    833 H1       6.8171    10.5131    17.8350 H       278 HOH278 0.0000
    834 H2       7.9525    10.3316    18.8198 H       278 HOH278 0.0000
    835 O       23.5019     4.9890    27.2799 O.3     279 HOH279 0.0000
    836 H1      23.3769     4.9965    26.3309 H       279 HOH279 0.0000
    837 H2      23.6670     5.9040    27.5074 H       279 HOH279 0.0000
    838 O       16.6186    23.0089     0.7433 O.3     280 HOH280 0.0000
    839 H1      16.2011    23.8593     0.8802 H       280 HOH280 0.0000
    840 H2      16.6223    22.8936    -0.2069 H       280 HOH280 0.0000
    841 O        2.0015     7.4181     0.8254 O.3     281 HOH281 0.0000
    842 H1       2.7116     7.5643     1.4504 H       281 HOH281 0.0000
    843 H2       2.3747     7.6591    -0.0225 H       281 HOH281 0.0000
    844 O        3.4781     4.6030    25.9727 O.3     282 HOH282 0.0000
    845 H1       2.7125     5.1148    26.2339 H       282 HOH282 0.0000
    846 H2       3.8662     5.1016    25.2538 H       282 HOH282 0.0000
    847 O       16.0838    11.5937     3.9620 O.3     283 HOH283 0.0000
    848 H1      16.4842    11.1068     4.6823 H       283 HOH283 0.0000
    849 H2      16.6350    12.3698     3.8613 H       283 HOH283 0.0000
    850 O       12.3129    19.6183    10.8191 O.3     284 HOH284 0.0000
    851 H1      11.8633    20.4194    11.0881 H       284 HOH284 0.0000
    852 H2      11.6472    18.9342    10.8897 H       284 HOH284 0.0000
    853 O        6.0116     0.3663     0.3101 O.3     285 HOH285 0.0000
    854 H1       5.7801     0.8316     1.1138 H       285 HOH285 0.0000
    855 H2       5.2100    -0.0926     0.0590 H       285 HOH285 0.0000
    856 O       15.0906    24.9778     3.9629 O.3     286 HOH286 0.0000
    857 H1      14.2094    25.3336     4.0778 H       286 HOH286 0.0000
    858 H2      15.2136    24.9431     3.0142 H       286 HOH286 0.0000
    859 O       24.8072    16.1854     7.2136 O.3     287 HOH287 0.0000
    860 H1      25.3937    15.5614     7.6414 H       287 HOH287 0.0000
    861 H2      24.1215    15.6424     6.8247 H       287 HOH287 0.0000
    862 O       25.5183    26.8187     9.0586 O.3     288 HOH288 0.0000
    863 H1      24.7358    26.6028     8.5514 H       288 HOH288 0.0000
    864 H2      26.1053    27.2362     8.4283 H       288 HOH288 0.0000
    865 O        9.4226    14.3182    10.5535 O.3     289 HOH289 0.0000
    866 H1       8.9817    14.8469     9.8885 H       289 HOH289 0.0000
    867 H2      10.3492    14.3584    10.3166 H       289 HOH289 0.0000
    868 O        4.3710     5.4739     9.0415 O.3     290 HOH290 0.0000
    869 H1       5.0789     5.8763     9.5446 H       290 HOH290 0.0000
    870 H2       3.5878     5.6161     9.5731 H       290 HOH290 0.0000
    871 O       13.6115    21.1659    27.1994 O.3     291 HOH291 0.0000
    872 H1      14.0068    21.9260    27.6263 H       291 HOH291 0.0000
    873 H2      13.3508    20.5939    27.9212 H       291 HOH291 0.0000
    874 O        1.9671     9.8808     3.9186 O.3     292 HOH292 0.0000
    875 H1       1.1161    10.2901     3.7620 H       292 HOH292 0.0000
    876 H2       2.5443    10.2680     3.2604 H       292 HOH292 0.0000
    877 O       17.8273    24.9785    17.3129 O.3     293 HOH293 0.0000
    878 H1      17.3439    24.1780    17.5171 H       293 HOH293 0.0000
    879 H2      17.2679    25.6854    17.6347 H       293 HOH293 0.0000
    880 O       11.7682     4.7385    13.5946 O.3     294 HOH294 0.0000
    881 H1      11.8256     5.6445    13.2910 H       294 HOH294 0.0000
    882 H2      12.0412     4.7748    14.5113 H       294 HOH294 0.0000
    883 O       15.5484    18.7342    13.6016 O.3     295 HOH295 0.0000
    884 H1      14.7858    18.1716    13.7368 H       295 HOH295 0.0000
    885 H2      15.2557    19.6043    13.8725 H       295 HOH295 0.0000
    886 O       12.8818     7.5204    13.2536 O.3     296 HOH296 0.0000
    887 H1      12.7297     8.2087    13.9011 H       296 HOH296 0.0000
    888 H2      13.8256     7.3642    13.2865 H       296 HOH296 0.0000
    889 O       16.7997    13.8044    26.1982 O.3     297 HOH297 0.0000
    890 H1      17.3167    14.3060    26.8286 H       297 HOH297 0.0000
    891 H2      16.3088    14.4656    25.7103 H       297 HOH297 0.0000
    892 O       23.6582    12.2985     0.5202 O.3     298 HOH298 0.0000
    893 H1      23.7758    12.9561     1.2058 H       298 HOH298 0.0000
    894 H2      22.7108    12.2526     0.3916 H       298 HOH298 0.0000
    895 O        2.6642    10.1730    20.0817 O.3     299 HOH299 0.0000
    896 H1       3.2405    10.9358    20.0348 H       299 HOH299 0.0000
    897 H2       2.6257     9.9582    21.0137 H       299 HOH299 0.0000
    898 O       22.1798     2.6406     7.7865 O.3     300 HOH300 0.0000
    899 H1      21.7255     2.9761     7.0136 H       300 HOH300 0.0000
    900 H2      21.4803     2.3184     8.3549 H       300 HOH300 0.0000
    901 O        2.4876    23.3456    26.4158 O.3     301 HOH301 0.0000
    902 H1       2.3212    22.6502    25.7794 H       301 HOH301 0.0000
    903 H2       3.3872    23.6215    26.2400 H       301 HOH301 0.0000
    904 O       21.7813    18.7465    10.3351 O.3     302 HOH302 0.0000
    905 H1      20.8487    18.9081    10.1923 H       302 HOH302 0.0000
    906 H2      21.9027    18.8588    11.2779 H       302 HOH302 0.0000
    907 O       25.6173     8.0200     5.7044 O.3     303 HOH303 0.0000
    908 H1      24.8947     7.9670     5.0789 H       303 HOH303 0.0000
    909 H2      25.3164     8.6422     6.3666 H       303 HOH303 0.0000
    910 O        4.9984    20.5924     3.4619 O.3     304 HOH304 0.0000
    911 H1       5.2126    20.8469     2.5644 H       304 HOH304 0.0000
    912 H2       4.9933    21.4157     3.9501 H       304 HOH304 0.0000
    913 O        5.0951    21.1105     7.5252 O.3     305 HOH305 0.0000
    914 H1       4.4646    20.6241     6.9941 H       305 HOH305 0.0000
    915 H2       5.3466    21.8544     6.9779 H       305 HOH305 0.0000
    916 O       16.2340    12.8741     6.7211 O.3     306 HOH306 0.0000
    917 H1      16.9721    13.4038     6.4197 H       306 HOH306 0.0000
    918 H2      16.6026    12.0002     6.8502 H       306 HOH306 0.0000
    919 O       16.1394    24.1711    10.8926 O.3     307 HOH307 0.0000
    920 H1      15.9709    25.1107    10.8216 H       307 HOH307 0.0000
    921 H2      16.1401    23.8584     9.9880 H       307 HOH307 0.0000
    922 O       13.2888    17.2397    13.6743 O.3     308 HOH308 0.0000
    923 H1      12.6848    17.9648    13.8346 H       308 HOH308 0.0000
    924 H2      12.8028    16.4593    13.9409 H       308 HOH308 0.0000
    925 O       10.8875    21.8434    11.0742 O.3     309 HOH309 0.0000
    926 H1      10.0549    21.8676    10.6026 H       309 HOH309 0.0000
    927 H2      11.4063    22.5453    10.6813 H       309 HOH309 0.0000
    928 O       12.2728    27.8806     4.4851 O.3     310 HOH310 0.0000
    929 H1      12.2687    28.8331     4.3894 H       310 HOH310 0.0000
    930 H2      11.4342    27.6775     4.8996 H       310 HOH310 0.0000
    931 O        9.4727    22.7966     3.4571 O.3     311 HOH311 0.0000
    932 H1       8.7424    23.4106     3.3803 H       311 HOH311 0.0000
    933 H2       9.1387    22.0951     4.0161 H       311 HOH311 0.0000
    934 O        9.5672     6.4260    18.3640 O.3     312 HOH312 0.0000
    935 H1       9.9609     5.8078    17.7483 H       312 HOH312 0.0000
    936 H2       9.1809     7.1039    17.8095 H       312 HOH312 0.0000
    937 O       19.7815     5.3519    14.8280 O.3     313 HOH313 0.0000
    938 H1      20.5902     5.8087    14.5969 H       313 HOH313 0.0000
    939 H2      19.9247     4.4502    14.5404 H       313 HOH313 0.0000
    940 O        8.8668    12.8053    12.7811 O.3     314 HOH314 0.0000
    941 H1       9.3036    11.9762    12.5859 H       314 HOH314 0.0000
    942 H2       9.1698    13.4029    12.0975 H       314 HOH314 0.0000
    943 O        4.1429    16.1029     1.0528 O.3     315 HOH315 0.0000
    944 H1       4.9674    16.0603     1.5372 H       315 HOH315 0.0000
    945 H2       3.7324    16.9155     1.3486 H       315 HOH315 0.0000
    946 O        3.7859    19.2762    27.6604 O.3     316 HOH316 0.0000
    947 H1       3.6607    19.0062    28.5701 H       316 HOH316 0.0000
    948 H2       3.4194    20.1596    27.6197 H       316 HOH316 0.0000
    949 O        0.5181     2.6557    19.6349 O.3     317 HOH317 0.0000
    950 H1       1.4601     2.5100    19.7228 H       317 HOH317 0.0000
    951 H2       0.3067     2.3365    18.7576 H       317 HOH317 0.0000
    952 O        5.5938    23.7168     6.5195 O.3     318 HOH318 0.0000
    953 H1       5.9209    23.9221     5.6437 H       318 HOH318 0.0000
    954 H2       6.3177    23.9404     7.1045 H       318 HOH318 0.0000
    955 O        9.4723     9.3010     1.1548 O.3     319 HOH319 0.0000
    956 H1       8.5171     9.3306     1.1009 H       319 HOH319 0.0000
    957 H2       9.7495    10.2037     0.9985 H       319 HOH319 0.0000
    958 O       10.0602     8.6816    23.4174 O.3     320 HOH320 0.0000
    959 H1      10.2164     7.9399    22.8329 H       320 HOH320 0.0000
    960 H2      10.0553     9.4452    22.8402 H       320 HOH320 0.0000
    961 O        4.6923     6.6549    24.7549 O.3     321 HOH321 0.0000
    962 H1       5.3515     7.3258    24.5770 H       321 HOH321 0.0000
    963 H2       5.1822     5.8326    24.7602 H       321 HOH321 0.0000
    964 O        5.9151     6.4850    11.0047 O.3     322 HOH322 0.0000
    965 H1       5.5753     6.0172    11.7675 H       322 HOH322 0.0000
    966 H2       6.2205     7.3225    11.3532 H       322 HOH322 0.0000
    967 O       11.4368    11.8347    25.2785 O.3     323 HOH323 0.0000
    968 H1      10.5980    11.8369    25.7397 H       323 HOH323 0.0000
    969 H2      11.2068    11.9844    24.3615 H       323 HOH323 0.0000
    970 O       11.5454     0.6976    11.5568 O.3     324 HOH324 0.0000
    971 H1      12.1915     1.3793    11.7413 H       324 HOH324 0.0000
    972 H2      10.8823     0.8044    12.2388 H       324 HOH324 0.0000
    973 O       17.1417     7.5183     2.6782 O.3     325 HOH325 0.0000
    974 H1      17.7087     7.9557     3.3134 H       325 HOH325 0.0000
    975 H2      16.2532     7.7379     2.9585 H       325 HOH325 0.0000
    976 O        6.0569    14.4713    24.3119 O.3     326 HOH326 0.0000
    977 H1       6.5084    13.6416    24.1568 H       326 HOH326 0.0000
    978 H2       5.1346    14.2776    24.1444 H       326 HOH326 0.0000
    979 O       21.5844     7.5855    12.2313 O.3     327 HOH327 0.0000
    980 H1      22.2944     8.2029    12.0558 H       327 HOH327 0.0000
    981 H2      21.3913     7.1935    11.3797 H       327 HOH327 0.0000
    982 O       25.6217    14.6790    15.2673 O.3     328 HOH328 0.0000
    983 H1      25.7210    15.0413    14.3869 H       328 HOH328 0.0000
    984 H2      26.5184    14.5539    15.5779 H       328 HOH328 0.0000
    985 O        0.7429     1.9900    17.0056 O.3     329 HOH329 0.0000
    986 H1       1.2143     1.1705    17.1553 H       329 HOH329 0.0000
    987 H2       1.1330     2.3491    16.2086 H       329 HOH329 0.0000
    988 O        1.4486    14.6411    25.9303 O.3     330 HOH330 0.0000
    989 H1       1.0340    14.4945    25.0800 H       330 HOH330 0.0000
    990 H2       1.0977    13.9491    26.4909 H       330 HOH330 0.0000
    991 O       20.8725     7.0289    17.2225 O.3     331 HOH331 0.0000
    992 H1      20.9072     6.2892    16.6159 H       331 HOH331 0.0000
    993 H2      21.5924     6.8723    17.8335 H       331 HOH331 0.0000
    994 O        7.0077    12.5622    20.4897 O.3     332 HOH332 0.0000
    995 H1       7.1909    11.9593    19.7691 H       332 HOH332 0.0000
    996 H2       6.8394    13.4022    20.0628 H       332 HOH332 0.0000
    997 O       22.4632    11.2040     8.9471 O.3     333 HOH333 0.0000
    998 H1      23.1151    11.3911     8.2716 H       333 HOH333 0.0000
    999 H2      21.8296    10.6300     8.5168 H       333 HOH333 0.0000
   1000 O       24.6355     2.7519     1.4287 O.3     334 HOH334 0.0000
   1001 H1      24.5633     1.8033     1.3222 H       334 HOH334 0.0000
   1002 H2      25.5696     2.9073     1.5683 H       334 HOH334 0.0000
   1003 O       18.3709    15.5925    23.0344 O.3     335 HOH335 0.0000
   1004 H1      18.5900    16.3503    23.5765 H       335 HOH335 0.0000
   1005 H2      19.2120    15.1690    22.8627 H       335 HOH335 0.0000
   1006 O       11.7570     2.4389     5.2486 O.3     336 HOH336 0.0000
   1007 H1      11.6797     2.5462     6.1966 H       336 HOH336 0.0000
   1008 H2      11.0515     2.9760     4.8880 H       336 HOH336 0.0000
   1009 O        1.6346    15.9537    17.8824 O.3     337 HOH337 0.0000
   1010 H1       2.1141    16.4876    18.5160 H       337 HOH337 0.0000
   1011 H2       1.7787    16.3904    17.0429 H       337 HOH337 0.0000
   1012 O       22.8821    22.7478     3.7256 O.3     338 HOH338 0.0000
   1013 H1      23.4098    23.4936     4.0115 H       338 HOH338 0.0000
   1014 H2      22.7000    22.9226     2.8023 H       338 HOH338 0.0000
   1015 O       13.9636    13.4821     3.5951 O.3     339 HOH339 0.0000
   1016 H1      14.2314    14.2665     3.1162 H       339 HOH339 0.0000
   1017 H2      14.2595    12.7543     3.0483 H       339 HOH339 0.0000
   1018 O       10.3828    14.3928    26.7546 O.3     340 HOH340 0.0000
   1019 H1      10.1454    14.6376    25.8602 H       340 HOH340 0.0000
   1020 H2      11.3185    14.5850    26.8157 H       340 HOH340 0.0000
   1021 O       27.8772    14.1631    12.5279 O.3     341 HOH341 0.0000
   1022 H1      28.7011    14.5070    12.1829 H       341 HOH341 0.0000
   1023 H2      27.3990    14.9377    12.8239 H       341 HOH341 0.0000
   1024 O       18.8985     9.0630     4.1635 O.3     342 HOH342 0.0000
   1025 H1      19.2165     8.1844     4.3714 H       342 HOH342 0.0000
   1026 H2      19.6812     9.5443     3.8952 H       342 HOH342 0.0000
   1027 O       24.0857    22.9369     7.6578 O.3     343 HOH343 0.0000
   1028 H1      24.8348    23.3225     8.1120 H       343 HOH343 0.0000
   1029 H2      24.4735    22.3270     7.0302 H       343 HOH343 0.0000
   1030 O        1.4929     1.2080    24.8021 O.3     344 HOH344 0.0000
   1031 H1       1.4843     1.4207    25.7354 H       344 HOH344 0.0000
   1032 H2       0.8012     1.7521    24.4256 H       344 HOH344 0.0000
   1033 O       20.5115    11.4150    14.1750 O.3     345 HOH345 0.0000
   1034 H1      20.4860    11.4389    13.2184 H       345 HOH345 0.0000
   1035 H2      19.8689    12.0695    14.4486 H       345 HOH345 0.0000
   1036 O       26.6498    21.1260    16.5509 O.3     346 HOH346 0.0000
   1037 H1      27.1269    21.9317    16.3520 H       346 HOH346 0.0000
   1038 H2      27.0401    20.8110    17.3662 H       346 HOH346 0.0000
   1039 O        0.8104     8.6758    14.8897 O.3     347 HOH347 0.0000
   1040 H1      -0.0519     8.5287    14.5009 H       347 HOH347 0.0000
   1041 H2       0.6651     8.5972    15.8325 H       347 HOH347 0.0000
   1042 O       19.4516    27.7783    27.0488 O.3     348 HOH348 0.0000
   1043 H1      19.4342    28.6272    26.6069 H       348 HOH348 0.0000
   1044 H2      20.1987    27.8333    27.6447 H       348 HOH348 0.0000
   1045 O        4.3783     4.5523     0.8990 O.3     349 HOH349 0.0000
   1046 H1       4.4934     5.4296     1.2640 H       349 HOH349 0.0000
   1047 H2       3.5367     4.5899     0.4447 H       349 HOH349 0.0000
   1048 O       12.5457     7.2168    21.2266 O.3     350 HOH350 0.0000
   1049 H1      11.6036     7.0734    21.1365 H       350 HOH350 0.0000
   1050 H2      12.7049     7.1801    22.1697 H       350 HOH350 0.0000
   1051 O        6.2768     2.8671    15.5372 O.3     351 HOH351 0.0000
   1052 H1       6.1590     3.5062    16.2400 H       351 HOH351 0.0000
   1053 H2       5.8043     3.2394    14.7926 H       351 HOH351 0.0000
   1054 O       19.4675    22.3727    12.7901 O.3     352 HOH352 0.0000
   1055 H1      20.3694    22.4055    12.4712 H       352 HOH352 0.0000
   1056 H2      19.5408    22.5197    13.7331 H       352 HOH352 0.0000
   1057 O        9.5961     9.9064    14.8933 O.3     353 HOH353 0.0000
   1058 H1       8.9814    10.4673    15.3663 H       353 HOH353 0.0000
   1059 H2       9.4137    10.0762    13.9691 H       353 HOH353 0.0000
   1060 O       17.3341     1.2913    22.6679 O.3     354 HOH354 0.0000
   1061 H1      18.2329     1.0176    22.8506 H       354 HOH354 0.0000
   1062 H2      17.1375     1.9377    23.3460 H       354 HOH354 0.0000
   1063 O       23.7715     0.1499    20.0812 O.3     355 HOH355 0.0000
   1064 H1      23.5388     0.5264    20.9299 H       355 HOH355 0.0000
   1065 H2      23.9277     0.9074    19.5173 H       355 HOH355 0.0000
   1066 O       19.0316    19.3873    21.7011 O.3     356 HOH356 0.0000
   1067 H1      18.1279    19.6057    21.4735 H       356 HOH356 0.0000
   1068 H2      19.4228    19.0958    20.8775 H       356 HOH356 0.0000
   1069 O       12.1419    23.0461    23.0313 O.3     357 HOH357 0.0000
   1070 H1      12.7069    23.8135    23.1215 H       357 HOH357 0.0000
   1071 H2      11.8003    22.8947    23.9126 H       357 HOH357 0.0000
   1072 O        9.7776    13.1372    20.1394 O.3     358 HOH358 0.0000
   1073 H1       9.7340    13.1368    19.1832 H       358 HOH358 0.0000
   1074 H2       8.8849    12.9364    20.4204 H       358 HOH358 0.0000
   1075 O       22.2972     3.4891    11.8103 O.3     359 HOH359 0.0000
   1076 H1      23.0743     3.5695    12.3634 H       359 HOH359 0.0000
   1077 H2      22.4804     4.0494    11.0561 H       359 HOH359 0.0000
   1078 O       18.4465    12.0050    24.0700 O.3     360 HOH360 0.0000
   1079 H1      18.4809    11.1763    24.5477 H       360 HOH360 0.0000
   1080 H2      18.4988    12.6764    24.7502 H       360 HOH360 0.0000
   1081 O       16.3672     2.5998    17.8722 O.3     361 HOH361 0.0000
   1082 H1      16.2573     3.5262    17.6580 H       361 HOH361 0.0000
   1083 H2      16.8486     2.6002    18.6995 H       361 HOH361 0.0000
   1084 O       25.6707    23.9808    13.4839 O.3     362 HOH362 0.0000
   1085 H1      25.4420    24.9082    13.4207 H       362 HOH362 0.0000
   1086 H2      24.9366    23.5841    13.9528 H       362 HOH362 0.0000
   1087 O       27.4815     5.6049     9.0786 O.3     363 HOH363 0.0000
   1088 H1      27.5449     4.6899     9.3525 H       363 HOH363 0.0000
   1089 H2      27.8103     6.1028     9.8271 H       363 HOH363 0.0000
   1090 O       14.5701    22.0435     3.8457 O.3     364 HOH364 0.0000
   1091 H1      13.7862    22.3122     3.3666 H       364 HOH364 0.0000
   1092 H2      14.9339    22.8601     4.1879 H       364 HOH364 0.0000
   1093 O        3.3595    25.2755    19.6125 O.3     365 HOH365 0.0000
   1094 H1       2.8380    25.9056    20.1097 H       365 HOH365 0.0000
   1095 H2       4.2398    25.6510    19.5978 H       365 HOH365 0.0000
   1096 O       25.1582    19.9712    12.0756 O.3     366 HOH366 0.0000
   1097 H1      25.0047    20.7529    11.5450 H       366 HOH366 0.0000
   1098 H2      26.0788    19.7562    11.9254 H       366 HOH366 0.0000
   1099 O       10.1815    25.6248     9.9559 O.3     367 HOH367 0.0000
   1100 H1      10.9682    25.0846     9.8819 H       367 HOH367 0.0000
   1101 H2       9.4707    25.0552     9.6618 H       367 HOH367 0.0000
   1102 O       21.4319    24.1608    27.2521 O.3     368 HOH368 0.0000
   1103 H1      20.6635    23.6725    26.9565 H       368 HOH368 0.0000
   1104 H2      21.8751    24.4224    26.4450 H       368 HOH368 0.0000
   1105 O       19.1098    18.8714    11.3306 O.3     369 HOH369 0.0000
   1106 H1      18.4309    19.5441    11.2789 H       369 HOH369 0.0000
   1107 H2      19.2042    18.6972    12.2671 H       369 HOH369 0.0000
   1108 O       13.1554    26.4646     2.5060 O.3     370 HOH370 0.0000
   1109 H1      12.9498    26.9978     3.2740 H       370 HOH370 0.0000
   1110 H2      12.3102    26.3210     2.0803 H       370 HOH370 0.0000
   1111 O        4.8287     7.1151    21.6043 O.3     371 HOH371 0.0000
   1112 H1       4.4211     7.8880    21.9951 H       371 HOH371 0.0000
   1113 H2       4.0927     6.5781    21.3108 H       371 HOH371 0.0000
   1114 O        9.6794     8.8273     9.3765 O.3     372 HOH372 0.0000
   1115 H1       9.1699     9.2151     8.6650 H       372 HOH372 0.0000
   1116 H2      10.1144     8.0739     8.9772 H       372 HOH372 0.0000
   1117 O        4.0206     0.2414    22.4272 O.3     373 HOH373 0.0000
   1118 H1       3.2607    -0.2598    22.1310 H       373 HOH373 0.0000
   1119 H2       4.0770     0.0598    23.3653 H       373 HOH373 0.0000
   1120 O        3.7431     1.1874    14.8826 O.3     374 HOH374 0.0000
   1121 H1       4.3834     1.1458    15.5929 H       374 HOH374 0.0000
   1122 H2       4.0508     1.9009    14.3236 H       374 HOH374 0.0000
   1123 O        6.5186    16.4204    12.1849 O.3     375 HOH375 0.0000
   1124 H1       6.3459    16.8919    12.9998 H       375 HOH375 0.0000
   1125 H2       7.4247    16.1230    12.2672 H       375 HOH375 0.0000
   1126 O       27.4265     8.2858    17.6840 O.3     376 HOH376 0.0000
   1127 H1      26.6422     8.8180    17.5507 H       376 HOH376 0.0000
   1128 H2      28.1166     8.9200    17.8788 H       376 HOH376 0.0000
   1129 O       14.1924     1.6111     1.7916 O.3     377 HOH377 0.0000
   1130 H1      13.7973     2.4063     2.1492 H       377 HOH377 0.0000
   1131 H2      14.2497     1.0149     2.5382 H       377 HOH377 0.0000
   1132 O       27.2380    27.4886    21.5744 O.3     378 HOH378 0.0000
   1133 H1      26.8385    28.3558    21.5063 H       378 HOH378 0.0000
   1134 H2      27.3365    27.1978    20.6678 H       378 HOH378 0.0000
   1135 O        6.2975     9.6080     1.2951 O.3     379 HOH379 0.0000
   1136 H1       6.2385     9.3430     0.3772 H       379 HOH379 0.0000
   1137 H2       5.6617    10.3184     1.3811 H       379 HOH379 0.0000
   1138 O        6.1150     9.4703    13.4801 O.3     380 HOH380 0.0000
   1139 H1       5.1992     9.2987    13.2606 H       380 HOH380 0.0000
   1140 H2       6.5318     9.6595    12.6394 H       380 HOH380 0.0000
   1141 O        9.8618    12.2665    23.1263 O.3     381 HOH381 0.0000
   1142 H1       9.7537    11.6793    22.3782 H       381 HOH381 0.0000
   1143 H2      10.2638    13.0532    22.7578 H       381 HOH381 0.0000
   1144 O        3.7101    16.8125    11.2887 O.3     382 HOH382 0.0000
   1145 H1       3.8351    17.1276    10.3935 H       382 HOH382 0.0000
   1146 H2       4.5673    16.4726    11.5454 H       382 HOH382 0.0000
   1147 O       20.0599    25.8685    12.7724 O.3     383 HOH383 0.0000
   1148 H1      19.5171    25.6743    12.0083 H       383 HOH383 0.0000
   1149 H2      19.4545    26.2561    13.4045 H       383 HOH383 0.0000
   1150 O       19.9768    19.5106     3.4808 O.3     384 HOH384 0.0000
   1151 H1      19.4424    20.0977     2.9461 H       384 HOH384 0.0000
   1152 H2      20.3562    20.0767     4.1529 H       384 HOH384 0.0000
   1153 O       21.2237     4.0597    19.0693 O.3     385 HOH385 0.0000
   1154 H1      21.8189     4.5290    18.4847 H       385 HOH385 0.0000
   1155 H2      21.2141     3.1636    18.7329 H       385 HOH385 0.0000
   1156 O        3.0137    27.5337    12.0921 O.3     386 HOH386 0.0000
   1157 H1       3.6587    27.8445    12.7274 H       386 HOH386 0.0000
   1158 H2       3.3182    26.6594    11.8491 H       386 HOH386 0.0000
   1159 O        8.5074    15.0059     0.9592 O.3     387 HOH387 0.0000
   1160 H1       9.0844    14.8535     0.2108 H       387 HOH387 0.0000
   1161 H2       9.0049    14.6906     1.7138 H       387 HOH387 0.0000
   1162 O       25.7765     3.3593    12.7826 O.3     388 HOH388 0.0000
   1163 H1      25.3540     3.9953    13.3598 H       388 HOH388 0.0000
   1164 H2      26.6284     3.7465    12.5814 H       388 HOH388 0.0000
   1165 O       12.0075    15.2132     9.6617 O.3     389 HOH389 0.0000
   1166 H1      12.9378    15.2093     9.8873 H       389 HOH389 0.0000
   1167 H2      11.9420    14.6323     8.9037 H       389 HOH389 0.0000
   1168 O       11.8689     7.8242     1.8592 O.3     390 HOH390 0.0000
   1169 H1      12.3195     7.8703     1.0160 H       390 HOH390 0.0000
   1170 H2      10.9847     8.1422     1.6766 H       390 HOH390 0.0000
   1171 O       21.9449     0.0385    12.7840 O.3     391 HOH391 0.0000
   1172 H1      21.8202    -0.8977    12.9396 H       391 HOH391 0.0000
   1173 H2      22.7342     0.0891    12.2449 H       391 HOH391 0.0000
   1174 O       21.0678    12.9216    27.6721 O.3     392 HOH392 0.0000
   1175 H1      20.5650    12.1078    27.6382 H       392 HOH392 0.0000
   1176 H2      20.6621    13.4251    28.3779 H       392 HOH392 0.0000
   1177 O       21.3986    25.1967    21.4765 O.3     393 HOH393 0.0000
   1178 H1      21.1360    25.6144    22.2968 H       393 HOH393 0.0000
   1179 H2      20.8060    24.4503    21.3868 H       393 HOH393 0.0000
   1180 O       15.4501    14.0546    21.0492 O.3     394 HOH394 0.0000
   1181 H1      15.9045    14.8970    21.0345 H       394 HOH394 0.0000
   1182 H2      15.9325    13.5108    20.4265 H       394 HOH394 0.0000
   1183 O        0.0758    23.5719    16.2049 O.3     395 HOH395 0.0000
   1184 H1      -0.6465    24.0145    16.6507 H       395 HOH395 0.0000
   1185 H2       0.8639    23.9145    16.6265 H       395 HOH395 0.0000
   1186 O       22.9109     4.0870    24.5930 O.3     396 HOH396 0.0000
   1187 H1      23.5962     4.0687    23.9250 H       396 HOH396 0.0000
   1188 H2      22.0945     4.1535    24.0977 H       396 HOH396 0.0000
   1189 O       10.6320    10.4540    21.2756 O.3     397 HOH397 0.0000
   1190 H1      10.1141    10.1656    20.5241 H       397 HOH397 0.0000
   1191 H2      11.3769    10.9157    20.8908 H       397 HOH397 0.0000
   1192 O       17.7260    26.0598    25.6890 O.3     398 HOH398 0.0000
   1193 H1      16.9801    26.6560    25.6232 H       398 HOH398 0.0000
   1194 H2      18.4033    26.5708    26.1322 H       398 HOH398 0.0000
   1195 O       24.8717    22.0081    19.1323 O.3     399 HOH399 0.0000
   1196 H1      24.8343    21.9745    20.0882 H       399 HOH399 0.0000
   1197 H2      25.8050    21.9534    18.9266 H       399 HOH399 0.0000
   1198 O       17.0928    16.1711    12.4018 O.3     400 HOH400 0.0000
   1199 H1      16.4477    16.2241    11.6966 H       400 HOH400 0.0000
   1200 H2      16.9948    16.9951    12.8791 H       400 HOH400 0.0000
   1201 O        7.5182     2.2111     9.4261 O.3     401 HOH401 0.0000
   1202 H1       7.5535     2.8324    10.1534 H       401 HOH401 0.0000
   1203 H2       8.4350     2.0527     9.2011 H       401 HOH401 0.0000
   1204 O        0.8468     5.3663     6.6188 O.3     402 HOH402 0.0000
   1205 H1       0.5976     5.2305     7.5329 H       402 HOH402 0.0000
   1206 H2       0.0301     5.6053     6.1804 H       402 HOH402 0.0000
   1207 O       15.3892     3.8736    20.8895 O.3     403 HOH403 0.0000
   1208 H1      15.5210     4.2871    21.7426 H       403 HOH403 0.0000
   1209 H2      14.5665     4.2426    20.5683 H       403 HOH403 0.0000
   1210 O        6.7397    11.7239    23.2929 O.3     404 HOH404 0.0000
   1211 H1       7.6174    11.4508    23.5598 H       404 HOH404 0.0000
   1212 H2       6.7801    11.7608    22.3373 H       404 HOH404 0.0000
   1213 O        1.4143    14.2717     6.6543 O.3     405 HOH405 0.0000
   1214 H1       2.2952    13.9115     6.5520 H       405 HOH405 0.0000
   1215 H2       1.3706    14.9837     6.0160 H       405 HOH405 0.0000
   1216 O        7.9482    19.9552    17.0176 O.3     406 HOH406 0.0000
   1217 H1       7.8530    20.4721    16.2176 H       406 HOH406 0.0000
   1218 H2       8.7666    20.2636    17.4066 H       406 HOH406 0.0000
   1219 O        3.3052    21.1391    17.9912 O.3     407 HOH407 0.0000
   1220 H1       4.0403    21.5056    18.4828 H       407 HOH407 0.0000
   1221 H2       3.4796    21.3821    17.0820 H       407 HOH407 0.0000
   1222 O       15.9732    25.7119     1.2997 O.3     408 HOH408 0.0000
   1223 H1      16.8862    25.9463     1.4661 H       408 HOH408 0.0000
   1224 H2      15.4721    26.4695     1.6016 H       408 HOH408 0.0000
   1225 O       14.9238     0.3793     7.1662 O.3     409 HOH409 0.0000
   1226 H1      14.5291     0.8492     7.9008 H       409 HOH409 0.0000
   1227 H2      14.3116    -0.3327     6.9801 H       409 HOH409 0.0000
   1228 O        7.2571     1.7066    21.8578 O.3     410 HOH410 0.0000
   1229 H1       7.9039     2.3408    21.5483 H       410 HOH410 0.0000
   1230 H2       7.5520     1.4731    22.7380 H       410 HOH410 0.0000
   1231 O       23.3264    14.8457    13.4636 O.3     411 HOH411 0.0000
   1232 H1      22.7245    14.5947    12.7629 H       411 HOH411 0.0000
   1233 H2      22.7574    15.1420    14.1740 H       411 HOH411 0.0000
   1234 O       23.7393    15.7319    16.7929 O.3     412 HOH412 0.0000
   1235 H1      24.4330    16.1745    17.2821 H       412 HOH412 0.0000
   1236 H2      24.2033    15.1380    16.2027 H       412 HOH412 0.0000
   1237 O       12.8216    26.8895     7.5011 O.3     413 HOH413 0.0000
   1238 H1      12.0363    27.3850     7.7336 H       413 HOH413 0.0000
   1239 H2      13.1704    26.5855     8.3391 H       413 HOH413 0.0000
   1240 O        2.3105    11.6664    11.1089 O.3     414 HOH414 0.0000
   1241 H1       3.2040    11.5504    10.7857 H       414 HOH414 0.0000
   1242 H2       1.7657    11.6422    10.3222 H       414 HOH414 0.0000
   1243 O       13.1170     4.7298    19.5236 O.3     415 HOH415 0.0000
   1244 H1      13.0657     5.3730    20.2307 H       415 HOH415 0.0000
   1245 H2      13.5714     5.1869    18.8159 H       415 HOH415 0.0000
   1246 O       26.8913    14.5571     8.5520 O.3     416 HOH416 0.0000
   1247 H1      27.8008    14.5038     8.8456 H       416 HOH416 0.0000
   1248 H2      26.8629    14.0206     7.7598 H       416 HOH416 0.0000
   1249 O        2.0346    18.9637     7.0008 O.3     417 HOH417 0.0000
   1250 H1       1.9311    19.8999     6.8306 H       417 HOH417 0.0000
   1251 H2       1.2388    18.7160     7.4716 H       417 HOH417 0.0000
   1252 O       15.5405    23.3396    17.6926 O.3     418 HOH418 0.0000
   1253 H1      14.9199    24.0473    17.5189 H       418 HOH418 0.0000
   1254 H2      15.1467    22.5692    17.2831 H       418 HOH418 0.0000
   1255 O       19.8223    14.7477     1.4230 O.3     419 HOH419 0.0000
   1256 H1      19.2162    15.1315     0.7893 H       419 HOH419 0.0000
   1257 H2      20.3904    15.4733     1.6817 H       419 HOH419 0.0000
   1258 O       12.9746    12.3065    20.6457 O.3     420 HOH420 0.0000
   1259 H1      13.8018    12.5298    21.0725 H       420 HOH420 0.0000
   1260 H2      12.6131    13.1482    20.3678 H       420 HOH420 0.0000
   1261 O       15.2119     7.4018    20.0082 O.3     421 HOH421 0.0000
   1262 H1      14.4176     7.6090    20.5004 H       421 HOH421 0.0000
   1263 H2      15.2996     8.1195    19.3809 H       421 HOH421 0.0000
   1264 O        0.2937    22.3043     7.5179 O.3     422 HOH422 0.0000
   1265 H1      -0.6368    22.0811     7.4946 H       422 HOH422 0.0000
   1266 H2       0.5577    22.1381     8.4229 H       422 HOH422 0.0000
   1267 O       13.5273    12.3815     6.0368 O.3     423 HOH423 0.0000
   1268 H1      13.4310    12.7414     5.1550 H       423 HOH423 0.0000
   1269 H2      14.4508    12.5143     6.2507 H       423 HOH423 0.0000
   1270 O        1.6624    10.0313    17.7037 O.3     424 HOH424 0.0000
   1271 H1       2.3776     9.7775    17.1204 H       424 HOH424 0.0000
   1272 H2       2.0968    10.3003    18.5131 H       424 HOH424 0.0000
   1273 O       16.5558    21.7131    24.2723 O.3     425 HOH425 0.0000
   1274 H1      15.7002    21.2895    24.2040 H       425 HOH425 0.0000
   1275 H2      16.7393    22.0277    23.3871 H       425 HOH425 0.0000
   1276 O        0.7095    22.8584    19.3890 O.3     426 HOH426 0.0000
   1277 H1       1.3007    23.2558    18.7496 H       426 HOH426 0.0000
   1278 H2       0.7047    21.9277    19.1654 H       426 HOH426 0.0000
   1279 O       21.2158    16.3665    26.7465 O.3     427 HOH427 0.0000
   1280 H1      20.3268    16.0716    26.9437 H       427 HOH427 0.0000
   1281 H2      21.1598    17.3220    26.7583 H       427 HOH427 0.0000
   1282 O       25.7417    24.9841    17.4867 O.3     428 HOH428 0.0000
   1283 H1      25.2019    24.9632    18.2770 H       428 HOH428 0.0000
   1284 H2      25.7172    25.8981    17.2035 H       428 HOH428 0.0000
   1285 O        4.1656    13.8201    18.7198 O.3     429 HOH429 0.0000
   1286 H1       3.2637    14.0288    18.4765 H       429 HOH429 0.0000
   1287 H2       4.6763    14.5697    18.4141 H       429 HOH429 0.0000
   1288 O        1.9394    24.3238    23.3931 O.3     430 HOH430 0.0000
   1289 H1       1.9845    24.8988    24.1570 H       430 HOH430 0.0000
   1290 H2       2.2834    23.4859    23.7029 H       430 HOH430 0.0000
   1291 O       26.8079    13.5130     2.7713 O.3     431 HOH431 0.0000
   1292 H1      26.3121    14.2934     2.5234 H       431 HOH431 0.0000
   1293 H2      27.7245    13.7820     2.7112 H       431 HOH431 0.0000
   1294 O       10.0310    18.4464     2.1822 O.3     432 HOH432 0.0000
   1295 H1       9.6454    17.7251     1.6849 H       432 HOH432 0.0000
   1296 H2      10.9744    18.3505     2.0518 H       432 HOH432 0.0000
   1297 O       23.6824    25.7218     7.4977 O.3     433 HOH433 0.0000
   1298 H1      23.7598    25.8390     6.5509 H       433 HOH433 0.0000
   1299 H2      23.7121    24.7736     7.6253 H       433 HOH433 0.0000
   1300 O       23.1187    22.5968     0.6955 O.3     434 HOH434 0.0000
   1301 H1      23.9387    23.0254     0.4504 H       434 HOH434 0.0000
   1302 H2      22.4358    23.1543     0.3227 H       434 HOH434 0.0000
   1303 O       15.0410    13.5276    16.6216 O.3     435 HOH435 0.0000
   1304 H1      15.0166    14.3761    17.0640 H       435 HOH435 0.0000
   1305 H2      15.9718    13.3610    16.4732 H       435 HOH435 0.0000
   1306 O        8.5576     5.6416     3.1176 O.3     436 HOH436 0.0000
   1307 H1       8.4598     5.3271     2.2189 H       436 HOH436 0.0000
   1308 H2       7.8421     6.2670     3.2322 H       436 HOH436 0.0000
   1309 O       11.2744    18.5156    22.9724 O.3     437 HOH437 0.0000
   1310 H1      11.2392    19.4458    23.1954 H       437 HOH437 0.0000
   1311 H2      11.1516    18.0639    23.8074 H       437 HOH437 0.0000
   1312 O        4.5685     7.1983     1.8849 O.3     438 HOH438 0.0000
   1313 H1       4.7790     7.0234     2.8021 H       438 HOH438 0.0000
   1314 H2       5.1236     7.9414     1.6487 H       438 HOH438 0.0000
   1315 O        4.1053    17.5699     8.2787 O.3     439 HOH439 0.0000
   1316 H1       4.8683    18.0426     7.9461 H       439 HOH439 0.0000
   1317 H2       3.3565    18.0074     7.8735 H       439 HOH439 0.0000
   1318 O       23.4318     7.6393    24.5358 O.3     440 HOH440 0.0000
   1319 H1      23.0235     8.4746    24.7634 H       440 HOH440 0.0000
   1320 H2      24.0186     7.4515    25.2684 H       440 HOH440 0.0000
   1321 O       15.4231    17.2597     8.5095 O.3     441 HOH441 0.0000
   1322 H1      15.2904    16.8160     9.3472 H       441 HOH441 0.0000
   1323 H2      15.0879    18.1450     8.6511 H       441 HOH441 0.0000
   1324 O       26.4738     1.2766    14.5717 O.3     442 HOH442 0.0000
   1325 H1      26.0714     1.9490    14.0220 H       442 HOH442 0.0000
   1326 H2      27.3581     1.1762    14.2194 H       442 HOH442 0.0000
   1327 O        8.7470    13.8942     7.5683 O.3     443 HOH443 0.0000
   1328 H1       9.6237    13.6612     7.8738 H       443 HOH443 0.0000
   1329 H2       8.6355    14.8074     7.8327 H       443 HOH443 0.0000
   1330 O       27.9305    12.5943    27.1559 O.3     444 HOH444 0.0000
   1331 H1      28.2677    11.7523    27.4618 H       444 HOH444 0.0000
   1332 H2      27.1015    12.3798    26.7282 H       444 HOH444 0.0000
   1333 O       12.8078     8.3098    27.4778 O.3     445 HOH445 0.0000
   1334 H1      12.1693     8.5615    26.8105 H       445 HOH445 0.0000
   1335 H2      13.6432     8.6401    27.1473 H       445 HOH445 0.0000
   1336 O       17.5546     6.7236    22.0945 O.3     446 HOH446 0.0000
   1337 H1      17.4165     7.4545    21.4921 H       446 HOH446 0.0000
   1338 H2      17.8001     5.9905    21.5301 H       446 HOH446 0.0000
   1339 O       11.4013    13.9977    16.8727 O.3     447 HOH447 0.0000
   1340 H1      11.6733    14.7361    17.4177 H       447 HOH447 0.0000
   1341 H2      10.4883    13.8436    17.1156 H       447 HOH447 0.0000
   1342 O       23.6925    18.7317     8.2740 O.3     448 HOH448 0.0000
   1343 H1      23.2040    18.5242     9.0706 H       448 HOH448 0.0000
   1344 H2      24.1320    17.9136     8.0420 H       448 HOH448 0.0000
   1345 O        0.8396    14.9854     1.5186 O.3     449 HOH449 0.0000
   1346 H1       1.7208    14.6354     1.3873 H       449 HOH449 0.0000
   1347 H2       0.4374    14.9546     0.6506 H       449 HOH449 0.0000
   1348 O       18.1024    26.4083    14.4234 O.3     450 HOH450 0.0000
   1349 H1      17.6588    27.2469    14.5504 H       450 HOH450 0.0000
   1350 H2      17.3996    25.7589    14.4470 H       450 HOH450 0.0000
   1351 O        2.2532    22.7960    11.2047 O.3     451 HOH451 0.0000
   1352 H1       2.9526    22.2911    10.7897 H       451 HOH451 0.0000
   1353 H2       2.6957    23.5601    11.5743 H       451 HOH451 0.0000
   1354 O        8.0544    20.2141    22.5212 O.3     452 HOH452 0.0000
   1355 H1       8.9746    20.1409    22.7744 H       452 HOH452 0.0000
   1356 H2       8.0538    20.8412    21.7980 H       452 HOH452 0.0000
   1357 O       24.0992     3.0444    22.4078 O.3     453 HOH453 0.0000
   1358 H1      24.7292     2.6596    21.7984 H       453 HOH453 0.0000
   1359 H2      23.8575     3.8796    22.0074 H       453 HOH453 0.0000
   1360 O       16.5004     9.5848     9.6333 O.3     454 HOH454 0.0000
   1361 H1      17.2890     9.2477    10.0585 H       454 HOH454 0.0000
   1362 H2      16.4497     9.1047     8.8067 H       454 HOH454 0.0000
   1363 O       11.8956    22.1301     6.1147 O.3     455 HOH455 0.0000
   1364 H1      10.9688    22.0626     5.8849 H       455 HOH455 0.0000
   1365 H2      12.1045    23.0571     5.9996 H       455 HOH455 0.0000
   1366 O       13.1162    11.7931    17.5131 O.3     456 HOH456 0.0000
   1367 H1      12.3485    12.3542    17.4036 H       456 HOH456 0.0000
   1368 H2      13.8615    12.3894    17.4418 H       456 HOH456 0.0000
   1369 O        5.4191    14.1506     4.0733 O.3     457 HOH457 0.0000
   1370 H1       5.2095    14.9932     4.4763 H       457 HOH457 0.0000
   1371 H2       4.6766    13.5880     4.2933 H       457 HOH457 0.0000
   1372 O       12.7234    10.4601    11.8478 O.3     458 HOH458 0.0000
   1373 H1      13.4595     9.8879    11.6311 H       458 HOH458 0.0000
   1374 H2      12.8745    10.7108    12.7591 H       458 HOH458 0.0000
   1375 O       27.7096    19.1620    11.7579 O.3     459 HOH459 0.0000
   1376 H1      27.4923    18.3992    11.2220 H       459 HOH459 0.0000
   1377 H2      28.3828    18.8475    12.3613 H       459 HOH459 0.0000
   1378 O       18.3790     3.9252    11.4130 O.3     460 HOH460 0.0000
   1379 H1      17.5551     3.5922    11.0574 H       460 HOH460 0.0000
   1380 H2      18.8350     3.1464    11.7320 H       460 HOH460 0.0000
   1381 O        3.1857    16.5002    15.1121 O.3     461 HOH461 0.0000
   1382 H1       4.0971    16.3454    14.8640 H       461 HOH461 0.0000
   1383 H2       3.2313    17.1874    15.7768 H       461 HOH461 0.0000
   1384 O       24.3630     8.5812    19.9984 O.3     462 HOH462 0.0000
   1385 H1      24.3440     7.9689    19.2629 H       462 HOH462 0.0000
   1386 H2      25.2928     8.6841    20.2010 H       462 HOH462 0.0000
   1387 O       17.0229    17.8978     3.4186 O.3     463 HOH463 0.0000
   1388 H1      16.4902    18.6747     3.2482 H       463 HOH463 0.0000
   1389 H2      16.6059    17.4817     4.1731 H       463 HOH463 0.0000
   1390 O        9.5283     9.2454    18.9527 O.3     464 HOH464 0.0000
   1391 H1       9.6264     8.3277    19.2065 H       464 HOH464 0.0000
   1392 H2      10.2765     9.4177    18.3811 H       464 HOH464 0.0000
   1393 O        9.9128     6.8275    21.0027 O.3     465 HOH465 0.0000
   1394 H1      10.1629     6.5302    20.1279 H       465 HOH465 0.0000
   1395 H2       8.9831     6.6108    21.0732 H       465 HOH465 0.0000
   1396 O       26.3507    14.9026    23.3342 O.3     466 HOH466 0.0000
   1397 H1      26.6741    15.7848    23.5167 H       466 HOH466 0.0000
   1398 H2      25.5845    14.8060    23.8997 H       466 HOH466 0.0000
   1399 O        2.4459    24.3400    17.3224 O.3     467 HOH467 0.0000
   1400 H1       3.1851    24.5794    16.7634 H       467 HOH467 0.0000
   1401 H2       2.7292    24.5711    18.2070 H       467 HOH467 0.0000
   1402 O       23.5941     7.7114    27.6400 O.3     468 HOH468 0.0000
   1403 H1      23.4305     8.0125    28.5338 H       468 HOH468 0.0000
   1404 H2      22.9615     8.1913    27.1055 H       468 HOH468 0.0000
   1405 O        5.6808    27.9869     9.3156 O.3     469 HOH469 0.0000
   1406 H1       6.3198    27.5057     8.7899 H       469 HOH469 0.0000
   1407 H2       5.9549    28.9016     9.2485 H       469 HOH469 0.0000
   1408 O       10.0761     0.9968    13.7799 O.3     470 HOH470 0.0000
   1409 H1      10.5745     1.4533    14.4577 H       470 HOH470 0.0000
   1410 H2       9.1760     0.9928    14.1057 H       470 HOH470 0.0000
   1411 O        9.4829     8.7410     3.9763 O.3     471 HOH471 0.0000
   1412 H1       9.7449     8.9116     3.0716 H       471 HOH471 0.0000
   1413 H2       8.5266     8.7125     3.9479 H       471 HOH471 0.0000
   1414 O       20.0370     6.7547     5.2669 O.3     472 HOH472 0.0000
   1415 H1      20.4431     5.9621     4.9161 H       472 HOH472 0.0000
   1416 H2      19.3937     6.4349     5.8995 H       472 HOH472 0.0000
   1417 O        5.0751    11.2717    10.2790 O.3     473 HOH473 0.0000
   1418 H1       5.5308    11.9276     9.7514 H       473 HOH473 0.0000
   1419 H2       5.7747    10.7933    10.7239 H       473 HOH473 0.0000
   1420 O       12.3458    27.6524    17.6376 O.3     474 HOH474 0.0000
   1421 H1      12.8854    28.1456    18.2555 H       474 HOH474 0.0000
   1422 H2      12.3419    28.1863    16.8431 H       474 HOH474 0.0000
   1423 O       23.2787    12.2363    17.4153 O.3     475 HOH475 0.0000
   1424 H1      23.8381    12.8201    16.9030 H       475 HOH475 0.0000
   1425 H2      23.3540    12.5589    18.3134 H       475 HOH475 0.0000
   1426 O       20.4706    18.8089    26.1681 O.3     476 HOH476 0.0000
   1427 H1      21.0121    19.4653    25.7298 H       476 HOH476 0.0000
   1428 H2      19.5720    19.1086    26.0309 H       476 HOH476 0.0000
   1429 O       13.3517     3.7069     3.3288 O.3     477 HOH477 0.0000
   1430 H1      13.5148     3.0595     4.0147 H       477 HOH477 0.0000
   1431 H2      12.5176     4.1088     3.5715 H       477 HOH477 0.0000
   1432 O       18.0401     5.7808     6.8981 O.3     478 HOH478 0.0000
   1433 H1      17.5920     4.9652     6.6741 H       478 HOH478 0.0000
   1434 H2      18.4939     5.5878     7.7185 H       478 HOH478 0.0000
   1435 O       21.3698    10.3124     3.3633 O.3     479 HOH479 0.0000
   1436 H1      21.2497    11.1824     2.9826 H       479 HOH479 0.0000
   1437 H2      21.6681    10.4807     4.2571 H       479 HOH479 0.0000
   1438 O       12.0329    10.9455     1.5200 O.3     480 HOH480 0.0000
   1439 H1      11.3757    11.0738     2.2040 H       480 HOH480 0.0000
   1440 H2      12.5171    10.1671     1.7954 H       480 HOH480 0.0000
   1441 O       17.6623    12.8270    11.2731 O.3     481 HOH481 0.0000
   1442 H1      17.7229    11.9900    11.7336 H       481 HOH481 0.0000
   1443 H2      18.5392    13.2041    11.3443 H       481 HOH481 0.0000
   1444 O        7.5295    16.7115    23.9091 O.3     482 HOH482 0.0000
   1445 H1       6.8314    17.1962    23.4686 H       482 HOH482 0.0000
   1446 H2       7.1407    15.8601    24.1099 H       482 HOH482 0.0000
   1447 O       20.8773    17.0649     2.4474 O.3     483 HOH483 0.0000
   1448 H1      21.6151    17.4797     2.0003 H       483 HOH483 0.0000
   1449 H2      20.2995    17.7912     2.6815 H       483 HOH483 0.0000
   1450 O       24.6188    20.6696     4.1000 O.3     484 HOH484 0.0000
   1451 H1      24.8105    20.5912     3.1655 H       484 HOH484 0.0000
   1452 H2      23.9371    21.3397     4.1497 H       484 HOH484 0.0000
   1453 O       12.2016    16.8745     2.5197 O.3     485 HOH485 0.0000
   1454 H1      11.8724    16.3939     3.2793 H       485 HOH485 0.0000
   1455 H2      12.5995    16.2034     1.9652 H       485 HOH485 0.0000
   1456 O        3.2568     3.7915    19.1440 O.3     486 HOH486 0.0000
   1457 H1       2.7796     4.0271    19.9396 H       486 HOH486 0.0000
   1458 H2       3.8222     3.0661    19.4092 H       486 HOH486 0.0000
   1459 O       11.9777    13.2025    12.2913 O.3     487 HOH487 0.0000
   1460 H1      12.0761    12.3387    11.8906 H       487 HOH487 0.0000
   1461 H2      12.8738    13.4872    12.4709 H       487 HOH487 0.0000
   1462 O       12.4904    19.9880     4.4185 O.3     488 HOH488 0.0000
   1463 H1      12.6267    19.5359     5.2511 H       488 HOH488 0.0000
   1464 H2      12.3627    20.9050     4.6615 H       488 HOH488 0.0000
   1465 O        2.0696     6.8397     3.9104 O.3     489 HOH489 0.0000
   1466 H1       2.2630     6.4822     4.7771 H       489 HOH489 0.0000
   1467 H2       2.0037     7.7844     4.0497 H       489 HOH489 0.0000
   1468 O        1.3644    16.9312    27.3932 O.3     490 HOH490 0.0000
   1469 H1       2.2596    16.8907    27.7297 H       490 HOH490 0.0000
   1470 H2       1.2990    16.1867    26.7951 H       490 HOH490 0.0000
   1471 O       22.3807    20.9936    21.1359 O.3     491 HOH491 0.0000
   1472 H1      22.7485    20.1474    21.3905 H       491 HOH491 0.0000
   1473 H2      22.4199    20.9943    20.1795 H       491 HOH491 0.0000
   1474 O       22.3947     3.9373     1.4746 O.3     492 HOH492 0.0000
   1475 H1      22.8223     4.3198     0.7084 H       492 HOH492 0.0000
   1476 H2      23.0520     3.3500     1.8479 H       492 HOH492 0.0000
   1477 O        4.3188    21.0997    10.1723 O.3     493 HOH493 0.0000
   1478 H1       4.6230    20.2080    10.3411 H       493 HOH493 0.0000
   1479 H2       4.7080    21.3304     9.3288 H       493 HOH493 0.0000
   1480 O        1.3996    23.0058     5.0689 O.3     494 HOH494 0.0000
   1481 H1       1.1509    22.7187     5.9475 H       494 HOH494 0.0000
   1482 H2       0.6433    23.5017     4.7554 H       494 HOH494 0.0000
   1483 O       23.1539    26.8783    26.7628 O.3     495 HOH495 0.0000
   1484 H1      22.8440    26.0092    26.5079 H       495 HOH495 0.0000
   1485 H2      23.2440    27.3529    25.9365 H       495 HOH495 0.0000
   1486 O       14.3191     7.8996     2.9304 O.3     496 HOH496 0.0000
   1487 H1      14.6385     8.7446     2.6141 H       496 HOH496 0.0000
   1488 H2      13.4788     7.7797     2.4878 H       496 HOH496 0.0000
   1489 O       26.8724     2.2170    24.0982 O.3     497 HOH497 0.0000
   1490 H1      26.3498     2.5510    24.8272 H       497 HOH497 0.0000
   1491 H2      26.3695     2.4475    23.3170 H       497 HOH497 0.0000
   1492 O       13.3050     2.5247    12.3196 O.3     498 HOH498 0.0000
   1493 H1      12.9341     3.3571    12.6125 H       498 HOH498 0.0000
   1494 H2      14.2222     2.5620    12.5908 H       498 HOH498 0.0000
   1495 O        8.0069     9.4765    25.5990 O.3     499 HOH499 0.0000
   1496 H1       7.1345     9.2753    25.9376 H       499 HOH499 0.0000
   1497 H2       8.1935    10.3570    25.9246 H       499 HOH499 0.0000
   1498 O       19.9548     1.3941     8.4608 O.3     500 HOH500 0.0000
   1499 H1      19.2075     0.8750     8.1636 H       500 HOH500 0.0000
   1500 H2      20.5501     0.7551     8.8527 H       500 HOH500 0.0000
   1501 O       14.6286    16.7424    11.0513 O.3     501 HOH501 0.0000
   1502 H1      13.8582    16.4798    11.5551 H       501 HOH501 0.0000
   1503 H2      14.5902    17.6987    11.0352 H       501 HOH501 0.0000
   1504 O        0.2405     6.3422    23.7674 O.3     502 HOH502 0.0000
   1505 H1      -0.6688     6.6165    23.6485 H       502 HOH502 0.0000
   1506 H2       0.1820     5.5255    24.2632 H       502 HOH502 0.0000
   1507 O        1.2774    26.0310     1.7180 O.3     503 HOH503 0.0000
   1508 H1       0.8229    25.2069     1.8922 H       503 HOH503 0.0000
   1509 H2       0.6481    26.5513     1.2185 H       503 HOH503 0.0000
   1510 O       17.5952     9.9412    20.8825 O.3     504 HOH504 0.0000
   1511 H1      16.7598     9.7172    21.2925 H       504 HOH504 0.0000
   1512 H2      17.4059    10.7232    20.3639 H       504 HOH504 0.0000
   1513 O       22.5364    24.6394    24.7539 O.3     505 HOH505 0.0000
   1514 H1      22.8990    23.9120    24.2483 H       505 HOH505 0.0000
   1515 H2      21.6829    24.8074    24.3544 H       505 HOH505 0.0000
   1516 O        7.9167    13.6178    14.9620 O.3     506 HOH506 0.0000
   1517 H1       8.3006    13.2584    14.1622 H       506 HOH506 0.0000
   1518 H2       6.9864    13.4010    14.9000 H       506 HOH506 0.0000
   1519 O       14.5086    14.1119    13.2032 O.3     507 HOH507 0.0000
   1520 H1      14.9333    14.9296    13.4624 H       507 HOH507 0.0000
   1521 H2      14.6241    13.5323    13.9561 H       507 HOH507 0.0000
   1522 O        9.0949    21.8525    26.2938 O.3     508 HOH508 0.0000
   1523 H1       8.9863    22.8031    26.3235 H       508 HOH508 0.0000
   1524 H2       9.3213    21.6087    27.1913 H       508 HOH508 0.0000
   1525 O        6.1634     7.6896    15.9313 O.3     509 HOH509 0.0000
   1526 H1       7.0359     8.0197    16.1459 H       509 HOH509 0.0000
   1527 H2       6.1692     7.5979    14.9785 H       509 HOH509 0.0000
   1528 O       24.8620    17.3575    27.1056 O.3     510 HOH510 0.0000
   1529 H1      25.7698    17.4508    27.3943 H       510 HOH510 0.0000
   1530 H2      24.7284    18.0829    26.4956 H       510 HOH510 0.0000
   1531 O        4.0919    16.9673    21.2098 O.3     511 HOH511 0.0000
   1532 H1       4.5780    16.9995    20.3859 H       511 HOH511 0.0000
   1533 H2       4.5881    17.5308    21.8035 H       511 HOH511 0.0000
   1534 O       10.9264    17.3101    10.6649 O.3     512 HOH512 0.0000
   1535 H1      10.6016    17.6471     9.8299 H       512 HOH512 0.0000
   1536 H2      11.3406    16.4763    10.4424 H       512 HOH512 0.0000
   1537 O       20.8827     2.0754    21.4142 O.3     513 HOH513 0.0000
   1538 H1      20.4222     1.7927    20.6241 H       513 HOH513 0.0000
   1539 H2      21.3116     2.8932    21.1624 H       513 HOH513 0.0000
   1540 O       23.2027    18.3671    21.2447 O.3     514 HOH514 0.0000
   1541 H1      22.6219    17.8434    20.6927 H       514 HOH514 0.0000
   1542 H2      23.1419    17.9616    22.1096 H       514 HOH514 0.0000
   1543 O       21.5013    18.6071     6.7470 O.3     515 HOH515 0.0000
   1544 H1      21.4641    19.5564     6.6305 H       515 HOH515 0.0000
   1545 H2      22.2709    18.4628     7.2976 H       515 HOH515 0.0000
   1546 O       19.3324    21.7854    23.1635 O.3     516 HOH516 0.0000
   1547 H1      18.7050    22.1892    22.5639 H       516 HOH516 0.0000
   1548 H2      19.3697    20.8688    22.8901 H       516 HOH516 0.0000
   1549 O        9.8496    21.6993     0.9303 O.3     517 HOH517 0.0000
   1550 H1      10.0883    21.8085     1.8508 H       517 HOH517 0.0000
   1551 H2       8.9135    21.5002     0.9471 H       517 HOH517 0.0000
   1552 O       25.2962    26.5052    12.9803 O.3     518 HOH518 0.0000
   1553 H1      25.3212    27.3077    13.5013 H       518 HOH518 0.0000
   1554 H2      24.8248    26.7505    12.1841 H       518 HOH518 0.0000
   1555 O       17.8717    17.6438     0.9515 O.3     519 HOH519 0.0000
   1556 H1      17.9840    18.5874     0.8358 H       519 HOH519 0.0000
   1557 H2      17.6896    17.5366     1.8851 H       519 HOH519 0.0000
   1558 O        5.7855    18.6912    22.7678 O.3     520 HOH520 0.0000
   1559 H1       6.6748    19.0413    22.7131 H       520 HOH520 0.0000
   1560 H2       5.4182    19.0913    23.5560 H       520 HOH520 0.0000
   1561 O       15.2982     5.0820    23.3477 O.3     521 HOH521 0.0000
   1562 H1      14.4816     5.5327    23.5625 H       521 HOH521 0.0000
   1563 H2      15.9815     5.7316    23.5132 H       521 HOH521 0.0000
   1564 O       22.8099    10.8196    23.0448 O.3     522 HOH522 0.0000
   1565 H1      21.9130    10.5141    22.9088 H       522 HOH522 0.0000
   1566 H2      23.2806    10.5393    22.2598 H       522 HOH522 0.0000
   1567 O       15.0063    26.0681    20.0618 O.3     523 HOH523 0.0000
   1568 H1      15.4432    26.7363    19.5337 H       523 HOH523 0.0000
   1569 H2      15.3318    26.2135    20.9501 H       523 HOH523 0.0000
   1570 O       14.7512    23.4624    12.8337 O.3     524 HOH524 0.0000
   1571 H1      15.3586    23.5164    12.0959 H       524 HOH524 0.0000
   1572 H2      14.2425    24.2718    12.7856 H       524 HOH524 0.0000
   1573 O        1.3640     4.9801     2.1343 O.3     525 HOH525 0.0000
   1574 H1       1.7640     5.2991     2.9433 H       525 HOH525 0.0000
   1575 H2       1.1594     5.7730     1.6388 H       525 HOH525 0.0000
   1576 O       15.4678    15.7455     2.3768 O.3     526 HOH526 0.0000
   1577 H1      15.9881    16.5085     2.6283 H       526 HOH526 0.0000
   1578 H2      16.1123    15.0526     2.2325 H       526 HOH526 0.0000
   1579 O       25.1446     7.5956    11.3937 O.3     527 HOH527 0.0000
   1580 H1      24.8059     8.4898    11.3493 H       527 HOH527 0.0000
   1581 H2      25.2155     7.3202    10.4798 H       527 HOH527 0.0000
   1582 O       21.0849    14.8256    15.8195 O.3     528 HOH528 0.0000
   1583 H1      20.7895    15.7360    15.8340 H       528 HOH528 0.0000
   1584 H2      21.9803    14.8584    16.1562 H       528 HOH528 0.0000
   1585 O        5.9543     5.2093     4.7994 O.3     529 HOH529 0.0000
   1586 H1       6.4553     5.1502     5.6129 H       529 HOH529 0.0000
   1587 H2       5.2566     5.8355     4.9923 H       529 HOH529 0.0000
   1588 O       17.6893    27.9686     7.6539 O.3     530 HOH530 0.0000
   1589 H1      16.8375    28.3910     7.5432 H       530 HOH530 0.0000
   1590 H2      17.6649    27.2194     7.0586 H       530 HOH530 0.0000
   1591 O        9.4960    24.7751    18.5281 O.3     531 HOH531 0.0000
   1592 H1      10.0334    24.2821    17.9080 H       531 HOH531 0.0000
   1593 H2      10.1140    25.0785    19.1931 H       531 HOH531 0.0000
   1594 O        4.8805     1.8619    20.3761 O.3     532 HOH532 0.0000
   1595 H1       5.7662     1.8182    20.7365 H       532 HOH532 0.0000
   1596 H2       4.4217     1.1235    20.7765 H       532 HOH532 0.0000
   1597 O       27.3929     2.8419     2.0593 O.3     533 HOH533 0.0000
   1598 H1      28.0236     3.5557     1.9650 H       533 HOH533 0.0000
   1599 H2      27.5175     2.5284     2.9551 H       533 HOH533 0.0000
   1600 O       26.2574     0.3506    26.3962 O.3     534 HOH534 0.0000
   1601 H1      26.5942    -0.0648    25.6023 H       534 HOH534 0.0000
   1602 H2      25.9472     1.2081    26.1053 H       534 HOH534 0.0000
   1603 O        6.9696    19.2569     0.7867 O.3     535 HOH535 0.0000
   1604 H1       7.3925    18.7576     1.4853 H       535 HOH535 0.0000
   1605 H2       6.1963    18.7414     0.5576 H       535 HOH535 0.0000
   1606 O       27.7316    24.6383    26.2665 O.3     536 HOH536 0.0000
   1607 H1      27.5624    25.3020    25.5977 H       536 HOH536 0.0000
   1608 H2      28.6850    24.6190    26.3496 H       536 HOH536 0.0000
   1609 O       26.8075     6.2181     2.5197 O.3     537 HOH537 0.0000
   1610 H1      27.4532     6.9245     2.5326 H       537 HOH537 0.0000
   1611 H2      27.2935     5.4435     2.8028 H       537 HOH537 0.0000
   1612 O       21.7502     9.2670    18.9593 O.3     538 HOH538 0.0000
   1613 H1      21.8819     9.4008    18.0207 H       538 HOH538 0.0000
   1614 H2      22.6349     9.2249    19.3222 H       538 HOH538 0.0000
   1615 O       12.7591    15.4861    26.0627 O.3     539 HOH539 0.0000
   1616 H1      12.3383    16.0771    25.4384 H       539 HOH539 0.0000
   1617 H2      13.2037    14.8374    25.5170 H       539 HOH539 0.0000
   1618 O        4.8613    24.7575    15.8920 O.3     540 HOH540 0.0000
   1619 H1       5.4474    24.8623    16.6415 H       540 HOH540 0.0000
   1620 H2       5.2827    25.2493    15.1872 H       540 HOH540 0.0000
   1621 O        7.6458     4.1612    11.0562 O.3     541 HOH541 0.0000
   1622 H1       6.9578     4.8115    11.1982 H       541 HOH541 0.0000
   1623 H2       8.0540     4.0523    11.9151 H       541 HOH541 0.0000
   1624 O        5.9576    13.6895    12.1661 O.3     542 HOH542 0.0000
   1625 H1       6.0318    14.6415    12.1003 H       542 HOH542 0.0000
   1626 H2       6.8599    13.3743    12.1143 H       542 HOH542 0.0000
   1627 O       12.4671     0.1498    22.3405 O.3     543 HOH543 0.0000
   1628 H1      12.3145     0.2753    23.2771 H       543 HOH543 0.0000
   1629 H2      13.3995     0.3316    22.2228 H       543 HOH543 0.0000
   1630 O        9.7494    26.3664     5.0714 O.3     544 HOH544 0.0000
   1631 H1       9.0879    27.0199     5.2986 H       544 HOH544 0.0000
   1632 H2       9.5482    26.1256     4.1671 H       544 HOH544 0.0000
   1633 O       17.9138     9.8620    25.9813 O.3     545 HOH545 0.0000
   1634 H1      17.3000    10.3561    26.5248 H       545 HOH545 0.0000
   1635 H2      17.3570     9.3155    25.4267 H       545 HOH545 0.0000
   1636 O        3.3407    18.2796    17.0001 O.3     546 HOH546 0.0000
   1637 H1       4.0648    18.8759    16.8100 H       546 HOH546 0.0000
   1638 H2       2.5770    18.6934    16.5978 H       546 HOH546 0.0000
   1639 O        2.1527     0.4381     7.4729 O.3     547 HOH547 0.0000
   1640 H1       2.4030     0.1095     6.6094 H       547 HOH547 0.0000
   1641 H2       2.1613     1.3906     7.3790 H       547 HOH547 0.0000
   1642 O       14.9608     1.9183     5.1273 O.3     548 HOH548 0.0000
   1643 H1      15.7499     1.5785     4.7053 H       548 HOH548 0.0000
   1644 H2      14.8633     1.3868     5.9173 H       548 HOH548 0.0000
   1645 O       16.0095    12.2204    22.8669 O.3     549 HOH549 0.0000
   1646 H1      16.2341    12.6843    22.0603 H       549 HOH549 0.0000
   1647 H2      16.8378    12.1489    23.3412 H       549 HOH549 0.0000
   1648 O       13.2717    14.8859     0.7203 O.3     550 HOH550 0.0000
   1649 H1      14.1363    15.1414     1.0417 H       550 HOH550 0.0000
   1650 H2      13.2760    15.1348    -0.2040 H       550 HOH550 0.0000
   1651 O       17.1140    22.8039    21.7594 O.3     551 HOH551 0.0000
   1652 H1      17.4726    22.3940    20.9723 H       551 HOH551 0.0000
   1653 H2      16.6089    23.5487    21.4333 H       551 HOH551 0.0000
   1654 O        8.7762    12.4834    26.3419 O.3     552 HOH552 0.0000
   1655 H1       8.0382    12.5310    26.9496 H       552 HOH552 0.0000
   1656 H2       9.3573    13.1936    26.6140 H       552 HOH552 0.0000
   1657 O        2.5307    19.0636    19.8631 O.3     553 HOH553 0.0000
   1658 H1       3.1279    18.6051    20.4542 H       553 HOH553 0.0000
   1659 H2       3.1022    19.5967    19.3105 H       553 HOH553 0.0000
   1660 O       13.5624    26.5402    14.4795 O.3     554 HOH554 0.0000
   1661 H1      14.2376    26.8284    13.8652 H       554 HOH554 0.0000
   1662 H2      12.9491    27.2738    14.5234 H       554 HOH554 0.0000
   1663 O        8.9780    25.5135    12.3237 O.3     555 HOH555 0.0000
   1664 H1       9.7006    25.4803    11.6969 H       555 HOH555 0.0000
   1665 H2       8.5688    26.3656    12.1733 H       555 HOH555 0.0000
   1666 O        9.9440    15.9319    24.5112 O.3     556 HOH556 0.0000
   1667 H1      10.1714    15.6841    23.6150 H       556 HOH556 0.0000
   1668 H2       9.0866    16.3504    24.4342 H       556 HOH556 0.0000
   1669 O        7.1833    24.3206     8.5848 O.3     557 HOH557 0.0000
   1670 H1       6.3720    24.0578     9.0194 H       557 HOH557 0.0000
   1671 H2       7.8248    23.6644     8.8571 H       557 HOH557 0.0000
   1672 O       11.5961     9.7445    16.9905 O.3     558 HOH558 0.0000
   1673 H1      10.8928    10.0065    16.3965 H       558 HOH558 0.0000
   1674 H2      12.0785    10.5531    17.1627 H       558 HOH558 0.0000
   1675 O       26.0666    19.6265    20.7324 O.3     559 HOH559 0.0000
   1676 H1      25.5069    18.9143    21.0419 H       559 HOH559 0.0000
   1677 H2      26.2617    20.1371    21.5181 H       559 HOH559 0.0000
   1678 O       11.6199    15.1133    14.3573 O.3     560 HOH560 0.0000
   1679 H1      11.4388    14.3253    13.8450 H       560 HOH560 0.0000
   1680 H2      11.6716    14.8048    15.2619 H       560 HOH560 0.0000
   1681 O        0.5067    19.8807    24.2779 O.3     561 HOH561 0.0000
   1682 H1       0.1120    19.8354    25.1487 H       561 HOH561 0.0000
   1683 H2      -0.1039    20.4101    23.7649 H       561 HOH561 0.0000
   1684 O        9.0427    20.8701     6.8385 O.3     562 HOH562 0.0000
   1685 H1       8.5963    20.6361     6.0248 H       562 HOH562 0.0000
   1686 H2       9.8042    20.2910     6.8697 H       562 HOH562 0.0000
   1687 O       27.7630    11.4863    16.1961 O.3     563 HOH563 0.0000
   1688 H1      27.9118    12.4222    16.3306 H       563 HOH563 0.0000
   1689 H2      28.5267    11.0631    16.5883 H       563 HOH563 0.0000
   1690 O        9.5038    21.7266    18.1666 O.3     564 HOH564 0.0000
   1691 H1       8.7045    22.0420    18.5883 H       564 HOH564 0.0000
   1692 H2       9.8846    22.5055    17.7611 H       564 HOH564 0.0000
   1693 O       21.9156    22.7516    11.5981 O.3     565 HOH565 0.0000
   1694 H1      21.8787    22.5325    10.6671 H       565 HOH565 0.0000
   1695 H2      22.7776    23.1503    11.7169 H       565 HOH565 0.0000
   1696 O        0.2489     4.4906    25.7622 O.3     566 HOH566 0.0000
   1697 H1       0.6393     3.6308    25.9188 H       566 HOH566 0.0000
   1698 H2      -0.3642     4.6115    26.4873 H       566 HOH566 0.0000
   1699 O       20.0981    17.1115    13.8203 O.3     567 HOH567 0.0000
   1700 H1      20.9449    17.5399    13.9456 H       567 HOH567 0.0000
   1701 H2      19.4574    17.8179    13.9024 H       567 HOH567 0.0000
   1702 O       11.7116    24.7879     5.9633 O.3     568 HOH568 0.0000
   1703 H1      11.0219    25.1791     5.4270 H       568 HOH568 0.0000
   1704 H2      12.0815    25.5231     6.4522 H       568 HOH568 0.0000
   1705 O        0.1192    10.8893    22.6382 O.3     569 HOH569 0.0000
   1706 H1      -0.7889    10.8282    22.9348 H       569 HOH569 0.0000
   1707 H2       0.1094    10.5160    21.7569 H       569 HOH569 0.0000
   1708 O       12.6806    17.4076    20.9454 O.3     570 HOH570 0.0000
   1709 H1      12.2824    17.6490    21.7817 H       570 HOH570 0.0000
   1710 H2      13.2390    18.1522    20.7217 H       570 HOH570 0.0000
   1711 O       13.1828    16.0059     6.6839 O.3     571 HOH571 0.0000
   1712 H1      13.1233    16.8180     7.1871 H       571 HOH571 0.0000
   1713 H2      13.4456    15.3452     7.3247 H       571 HOH571 0.0000
   1714 O       15.5010     5.8835     0.7959 O.3     572 HOH572 0.0000
   1715 H1      14.9924     6.1623     1.5574 H       572 HOH572 0.0000
   1716 H2      16.2450     6.4853     0.7709 H       572 HOH572 0.0000
   1717 O        3.0629    24.8682     7.2151 O.3     573 HOH573 0.0000
   1718 H1       3.1215    23.9136     7.1754 H       573 HOH573 0.0000
   1719 H2       3.5963    25.1721     6.4806 H       573 HOH573 0.0000
   1720 O       15.6532    17.4322     5.9187 O.3     574 HOH574 0.0000
   1721 H1      14.7785    17.0506     5.8446 H       574 HOH574 0.0000
   1722 H2      15.8439    17.4150     6.8566 H       574 HOH574 0.0000
   1723 O       17.9091    20.1304     6.1275 O.3     575 HOH575 0.0000
   1724 H1      17.5872    20.1210     7.0289 H       575 HOH575 0.0000
   1725 H2      18.4107    19.3195     6.0432 H       575 HOH575 0.0000
   1726 O       10.3468    18.4381    26.0961 O.3     576 HOH576 0.0000
   1727 H1       9.6443    18.8891    26.5644 H       576 HOH576 0.0000
   1728 H2      10.0759    17.5201    26.0832 H       576 HOH576 0.0000
   1729 O        7.6508    12.6712     3.9233 O.3     577 HOH577 0.0000
   1730 H1       7.5801    12.3647     3.0193 H       577 HOH577 0.0000
   1731 H2       6.9339    13.2980     4.0210 H       577 HOH577 0.0000
   1732 O       10.0644    15.0993    21.8304 O.3     578 HOH578 0.0000
   1733 H1      10.9421    15.3860    21.5781 H       578 HOH578 0.0000
   1734 H2       9.8391    14.4245    21.1900 H       578 HOH578 0.0000
   1735 O       26.1476     0.8592     5.0448 O.3     579 HOH579 0.0000
   1736 H1      25.3215     0.9631     5.5170 H       579 HOH579 0.0000
   1737 H2      25.9045     0.4201     4.2297 H       579 HOH579 0.0000
   1738 O       17.8398     3.5685     4.9912 O.3     580 HOH580 0.0000
   1739 H1      17.0331     4.0579     4.8298 H       580 HOH580 0.0000
   1740 H2      17.6230     2.6654     4.7596 H       580 HOH580 0.0000
   1741 O       12.4562    23.7935    10.2375 O.3     581 HOH581 0.0000
   1742 H1      13.0996    23.4065     9.6437 H       581 HOH581 0.0000
   1743 H2      12.8690    24.6001    10.5459 H       581 HOH581 0.0000
   1744 O        1.6729    27.1144    16.9322 O.3     582 HOH582 0.0000
   1745 H1       2.1735    27.4012    16.1683 H       582 HOH582 0.0000
   1746 H2       1.7904    26.1647    16.9533 H       582 HOH582 0.0000
   1747 O       16.3117    11.4875    27.4836 O.3     583 HOH583 0.0000
   1748 H1      16.4310    12.2955    26.9845 H       583 HOH583 0.0000
   1749 H2      15.4199    11.2075    27.2774 H       583 HOH583 0.0000
   1750 O       14.4545    21.1278    13.9920 O.3     584 HOH584 0.0000
   1751 H1      14.6909    22.0253    13.7578 H       584 HOH584 0.0000
   1752 H2      13.5074    21.0868    13.8595 H       584 HOH584 0.0000
   1753 O       26.7339    18.2578    14.7372 O.3     585 HOH585 0.0000
   1754 H1      25.8557    18.4747    14.4243 H       585 HOH585 0.0000
   1755 H2      27.0376    17.5714    14.1432 H       585 HOH585 0.0000
   1756 O       24.1860    10.0382    10.7429 O.3     586 HOH586 0.0000
   1757 H1      23.6282    10.5312    10.1413 H       586 HOH586 0.0000
   1758 H2      25.0551    10.4247    10.6356 H       586 HOH586 0.0000
   1759 O        5.0874     0.5320     4.6293 O.3     587 HOH587 0.0000
   1760 H1       4.8533     1.0007     3.8282 H       587 HOH587 0.0000
   1761 H2       4.6828     1.0408     5.3319 H       587 HOH587 0.0000
   1762 O        3.5663    13.2836     8.4346 O.3     588 HOH588 0.0000
   1763 H1       4.4026    13.4778     8.8577 H       588 HOH588 0.0000
   1764 H2       3.7874    12.6643     7.7390 H       588 HOH588 0.0000
   1765 O        1.5477     2.1765    27.3280 O.3     589 HOH589 0.0000
   1766 H1       1.5237     2.9198    27.9306 H       589 HOH589 0.0000
   1767 H2       2.4765     1.9565    27.2551 H       589 HOH589 0.0000
   1768 O       24.2630    20.2312     1.0604 O.3     590 HOH590 0.0000
   1769 H1      23.7519    21.0367     1.1394 H       590 HOH590 0.0000
   1770 H2      24.5066    20.1913     0.1356 H       590 HOH590 0.0000
   1771 O       25.2851    16.4191     2.3666 O.3     591 HOH591 0.0000
   1772 H1      25.8686    16.9904     1.8672 H       591 HOH591 0.0000
   1773 H2      24.5206    16.9631     2.5556 H       591 HOH591 0.0000
   1774 O       16.5630    11.7730    14.2396 O.3     592 HOH592 0.0000
   1775 H1      17.1328    12.5366    14.3313 H       592 HOH592 0.0000
   1776 H2      16.9911    11.2325    13.5756 H       592 HOH592 0.0000
   1777 O        6.8581    16.9330     2.3509 O.3     593 HOH593 0.0000
   1778 H1       7.3648    16.4239     1.7183 H       593 HOH593 0.0000
   1779 H2       7.0249    16.5060     3.1912 H       593 HOH593 0.0000
   1780 O       24.6143    26.5895    23.3032 O.3     594 HOH594 0.0000
   1781 H1      23.9036    26.9560    23.8295 H       594 HOH594 0.0000
   1782 H2      24.1802    25.9843    22.7020 H       594 HOH594 0.0000
   1783 O        8.1644     3.0958     4.8573 O.3     595 HOH595 0.0000
   1784 H1       7.8178     3.5185     5.6430 H       595 HOH595 0.0000
   1785 H2       8.3444     3.8182     4.2557 H       595 HOH595 0.0000
   1786 O        4.6443    11.0769    24.9512 O.3     596 HOH596 0.0000
   1787 H1       4.0972    11.8322    24.7359 H       596 HOH596 0.0000
   1788 H2       5.4777    11.2517    24.5140 H       596 HOH596 0.0000
   1789 O       14.7974    19.8058     9.6518 O.3     597 HOH597 0.0000
   1790 H1      14.0687    19.5178    10.2015 H       597 HOH597 0.0000
   1791 H2      14.5676    20.6996     9.3976 H       597 HOH597 0.0000
   1792 O       10.7568     0.1571     8.8528 O.3     598 HOH598 0.0000
   1793 H1      10.1641    -0.5924     8.7954 H       598 HOH598 0.0000
   1794 H2      10.9200     0.2628     9.7900 H       598 HOH598 0.0000
   1795 O        5.5970    23.9023    10.9214 O.3     599 HOH599 0.0000
   1796 H1       5.1161    24.0112    11.7418 H       599 HOH599 0.0000
   1797 H2       5.1810    24.5160    10.3160 H       599 HOH599 0.0000
   1798 O        5.0865    23.7178    22.2286 O.3     600 HOH600 0.0000
   1799 H1       5.7330    23.0639    21.9628 H       600 HOH600 0.0000
   1800 H2       4.3179    23.5278    21.6907 H       600 HOH600 0.0000
   1801 O       16.8393     4.7865    14.7831 O.3     601 HOH601 0.0000
   1802 H1      16.9354     5.3880    14.0447 H       601 HOH601 0.0000
   1803 H2      16.9375     5.3399    15.5579 H       601 HOH601 0.0000
   1804 O        0.1095    21.1939     1.0150 O.3     602 HOH602 0.0000
   1805 H1      -0.1139    21.0333     0.0982 H       602 HOH602 0.0000
   1806 H2       1.0527    21.3573     1.0072 H       602 HOH602 0.0000
   1807 O       25.9394     5.5091    14.4572 O.3     603 HOH603 0.0000
   1808 H1      26.2973     5.2863    15.3165 H       603 HOH603 0.0000
   1809 H2      26.0119     6.4622    14.4067 H       603 HOH603 0.0000
   1810 O        6.3414    13.6763     9.0348 O.3     604 HOH604 0.0000
   1811 H1       6.5406    14.4779     9.5186 H       604 HOH604 0.0000
   1812 H2       7.1913    13.3685     8.7201 H       604 HOH604 0.0000
   1813 O       23.4860     4.5152     9.4113 O.3     605 HOH605 0.0000
   1814 H1      23.3013     3.8336     8.7652 H       605 HOH605 0.0000
   1815 H2      23.7306     5.2799     8.8902 H       605 HOH605 0.0000
   1816 O       23.7929     5.6435    21.2562 O.3     606 HOH606 0.0000
   1817 H1      22.8605     5.6033    21.4691 H       606 HOH606 0.0000
   1818 H2      23.8472     6.2673    20.5323 H       606 HOH606 0.0000
   1819 O       24.4540    14.9870    25.2031 O.3     607 HOH607 0.0000
   1820 H1      23.5035    15.0573    25.1152 H       607 HOH607 0.0000
   1821 H2      24.6644    15.5215    25.9688 H       607 HOH607 0.0000
   1822 O       15.4285    18.3217    26.6536 O.3     608 HOH608 0.0000
   1823 H1      15.3331    17.9359    27.5244 H       608 HOH608 0.0000
   1824 H2      14.5321    18.4034    26.3278 H       608 HOH608 0.0000
   1825 O       27.6318    23.5691    21.8170 O.3     609 HOH609 0.0000
   1826 H1      28.1217    23.3158    21.0346 H       609 HOH609 0.0000
   1827 H2      28.2565    24.0728    22.3387 H       609 HOH609 0.0000
   1828 O        3.5113    25.8196     4.2825 O.3     610 HOH610 0.0000
   1829 H1       4.0970    26.4249     4.7373 H       610 HOH610 0.0000
   1830 H2       3.1584    26.3294     3.5534 H       610 HOH610 0.0000
   1831 O       24.0106    14.1629     2.6597 O.3     611 HOH611 0.0000
   1832 H1      24.5879    13.7337     3.2911 H       611 HOH611 0.0000
   1833 H2      24.4629    14.9761     2.4352 H       611 HOH611 0.0000
   1834 O       17.4467    25.9001     5.7330 O.3     612 HOH612 0.0000
   1835 H1      17.7185    25.1212     6.2186 H       612 HOH612 0.0000
   1836 H2      16.8555    25.5677     5.0576 H       612 HOH612 0.0000
   1837 O       25.0773     2.4509    10.2225 O.3     613 HOH613 0.0000
   1838 H1      25.4481     2.7500    11.0527 H       613 HOH613 0.0000
   1839 H2      24.5314     3.1796     9.9271 H       613 HOH613 0.0000
   1840 O       15.5764    19.8819     2.5712 O.3     614 HOH614 0.0000
   1841 H1      14.7085    19.5902     2.2921 H       614 HOH614 0.0000
   1842 H2      15.4037    20.5951     3.1858 H       614 HOH614 0.0000
   1843 O       20.5243     9.9811    21.5610 O.3     615 HOH615 0.0000
   1844 H1      20.6808    10.2657    20.6606 H       615 HOH615 0.0000
   1845 H2      19.5710     9.9410    21.6377 H       615 HOH615 0.0000
   1846 O       19.5171    14.9903    12.2807 O.3     616 HOH616 0.0000
   1847 H1      18.6849    15.3939    12.0341 H       616 HOH616 0.0000
   1848 H2      19.9207    15.6189    12.8791 H       616 HOH616 0.0000
   1849 O       13.4975    11.2032    27.1611 O.3     617 HOH617 0.0000
   1850 H1      12.9124    11.1205    27.9141 H       617 HOH617 0.0000
   1851 H2      12.9281    11.4825    26.4442 H       617 HOH617 0.0000
   1852 O        9.8179     6.5520    25.8246 O.3     618 HOH618 0.0000
   1853 H1       9.3026     6.2223    25.0884 H       618 HOH618 0.0000
   1854 H2       9.8670     7.4968    25.6791 H       618 HOH618 0.0000
   1855 O        8.9742     4.1098    13.6502 O.3     619 HOH619 0.0000
   1856 H1       9.8665     4.1891    13.3129 H       619 HOH619 0.0000
   1857 H2       9.0567     3.5413    14.4158 H       619 HOH619 0.0000
   1858 O       11.4227     7.6651     5.3105 O.3     620 HOH620 0.0000
   1859 H1      11.7041     8.4165     5.8324 H       620 HOH620 0.0000
   1860 H2      10.7128     8.0040     4.7652 H       620 HOH620 0.0000
   1861 O       21.5788    27.1982     9.2792 O.3     621 HOH621 0.0000
   1862 H1      22.2299    26.8754     8.6562 H       621 HOH621 0.0000
   1863 H2      22.0825    27.4082    10.0656 H       621 HOH621 0.0000
   1864 O       26.4369     5.1923    27.9858 O.3     622 HOH622 0.0000
   1865 H1      25.5142     5.1761    27.7316 H       622 HOH622 0.0000
   1866 H2      26.4595     5.7368    28.7727 H       622 HOH622 0.0000
   1867 O       20.2260    26.0562    16.3320 O.3     623 HOH623 0.0000
   1868 H1      19.4834    26.0957    15.7293 H       623 HOH623 0.0000
   1869 H2      19.8447    26.2233    17.1939 H       623 HOH623 0.0000
   1870 O       23.3696     9.5362    13.4278 O.3     624 HOH624 0.0000
   1871 H1      23.5624    10.2899    13.9855 H       624 HOH624 0.0000
   1872 H2      23.5123     9.8544    12.5364 H       624 HOH624 0.0000
   1873 O       14.0567    24.4127    27.7529 O.3     625 HOH625 0.0000
   1874 H1      14.6183    24.0360    27.0754 H       625 HOH625 0.0000
   1875 H2      14.6291    25.0099    28.2344 H       625 HOH625 0.0000
   1876 O        7.3393    11.8951     6.4826 O.3     626 HOH626 0.0000
   1877 H1       7.3937    12.2063     5.5791 H       626 HOH626 0.0000
   1878 H2       7.9669    12.4366     6.9612 H       626 HOH626 0.0000
   1879 O       25.4819    10.7427    24.2037 O.3     627 HOH627 0.0000
   1880 H1      25.6718    11.4249    24.8478 H       627 HOH627 0.0000
   1881 H2      24.5520    10.8525    24.0048 H       627 HOH627 0.0000
   1882 O        4.4403     8.9073     8.0982 O.3     628 HOH628 0.0000
   1883 H1       4.5740     9.2594     8.9782 H       628 HOH628 0.0000
   1884 H2       3.5252     8.6266     8.0885 H       628 HOH628 0.0000
   1885 O       27.4616    26.6842    19.0600 O.3     629 HOH629 0.0000
   1886 H1      27.1468    26.8324    18.1683 H       629 HOH629 0.0000
   1887 H2      28.4136    26.7591    18.9940 H       629 HOH629 0.0000
   1888 O       11.0624     3.3508    18.3101 O.3     630 HOH630 0.0000
   1889 H1      11.9213     3.6660    18.5916 H       630 HOH630 0.0000
   1890 H2      10.7205     2.8768    19.0681 H       630 HOH630 0.0000
   1891 O       18.3398    14.7900     8.2087 O.3     631 HOH631 0.0000
   1892 H1      17.6412    14.5475     8.8165 H       631 HOH631 0.0000
   1893 H2      18.5840    15.6790     8.4661 H       631 HOH631 0.0000
   1894 O       21.6716    22.1836    14.7871 O.3     632 HOH632 0.0000
   1895 H1      22.4463    21.9103    15.2785 H       632 HOH632 0.0000
   1896 H2      21.8089    23.1164    14.6221 H       632 HOH632 0.0000
   1897 O       23.5710    13.6405    19.7592 O.3     633 HOH633 0.0000
   1898 H1      22.8865    13.7204    20.4235 H       633 HOH633 0.0000
   1899 H2      24.2574    14.2418    20.0483 H       633 HOH633 0.0000
   1900 O        3.5251     5.7362     6.4031 O.3     634 HOH634 0.0000
   1901 H1       2.5795     5.7477     6.5514 H       634 HOH634 0.0000
   1902 H2       3.9014     5.5680     7.2670 H       634 HOH634 0.0000
   1903 O        1.7480    26.5699    21.6121 O.3     635 HOH635 0.0000
   1904 H1       0.9372    27.0751    21.6719 H       635 HOH635 0.0000
   1905 H2       1.5279    25.7174    21.9877 H       635 HOH635 0.0000
   1906 O       18.8034     7.5975    19.7783 O.3     636 HOH636 0.0000
   1907 H1      18.2737     8.3201    20.1154 H       636 HOH636 0.0000
   1908 H2      19.4071     8.0103    19.1606 H       636 HOH636 0.0000
   1909 O        6.0215    26.5841    14.0093 O.3     637 HOH637 0.0000
   1910 H1       6.6898    26.8830    14.6259 H       637 HOH637 0.0000
   1911 H2       6.2549    27.0029    13.1808 H       637 HOH637 0.0000
   1912 O        4.1294    24.6898     0.3488 O.3     638 HOH638 0.0000
   1913 H1       3.8944    25.6157     0.2872 H       638 HOH638 0.0000
   1914 H2       3.7149    24.2858    -0.4136 H       638 HOH638 0.0000
   1915 O        2.0366     3.5362    22.0131 O.3     639 HOH639 0.0000
   1916 H1       1.5801     4.0630    22.6691 H       639 HOH639 0.0000
   1917 H2       1.3575     2.9716    21.6439 H       639 HOH639 0.0000
   1918 O       10.7944     1.5435    20.6550 O.3     640 HOH640 0.0000
   1919 H1      10.4641     2.0254    21.4132 H       640 HOH640 0.0000
   1920 H2      11.4852     0.9834    21.0090 H       640 HOH640 0.0000
   1921 O       17.3199     0.7963     4.3495 O.3     641 HOH641 0.0000
   1922 H1      17.7149     0.7378     3.4795 H       641 HOH641 0.0000
   1923 H2      17.2750    -0.1100     4.6540 H       641 HOH641 0.0000
   1924 O       22.5914     0.4221    24.4140 O.3     642 HOH642 0.0000
   1925 H1      23.0683     1.0586    23.8813 H       642 HOH642 0.0000
   1926 H2      22.0170     0.9532    24.9656 H       642 HOH642 0.0000
   1927 O       25.8356     6.9721    22.9750 O.3     643 HOH643 0.0000
   1928 H1      25.4624     6.3737    22.3278 H       643 HOH643 0.0000
   1929 H2      25.0776     7.3238    23.4418 H       643 HOH643 0.0000
   1930 O       22.3372     6.2394    14.5613 O.3     644 HOH644 0.0000
   1931 H1      22.1556     6.7394    13.7655 H       644 HOH644 0.0000
   1932 H2      22.9732     6.7717    15.0392 H       644 HOH644 0.0000
   1933 O       16.7213     2.1883     1.1479 O.3     645 HOH645 0.0000
   1934 H1      16.3776     3.0756     1.2522 H       645 HOH645 0.0000
   1935 H2      15.9771     1.6184     1.3418 H       645 HOH645 0.0000
   1936 O       23.4968    22.9925    16.7642 O.3     646 HOH646 0.0000
   1937 H1      24.1036    23.7139    16.9304 H       646 HOH646 0.0000
   1938 H2      23.8726    22.2492    17.2360 H       646 HOH646 0.0000
   1939 O       24.4976    20.2351    26.1095 O.3     647 HOH647 0.0000
   1940 H1      25.1692    20.5981    25.5320 H       647 HOH647 0.0000
   1941 H2      23.6775    20.3594    25.6316 H       647 HOH647 0.0000
   1942 O        6.1717     3.3751    27.1817 O.3     648 HOH648 0.0000
   1943 H1       6.8263     3.2328    27.8654 H       648 HOH648 0.0000
   1944 H2       5.4923     3.8996    27.6053 H       648 HOH648 0.0000
   1945 O        4.3644    22.0906    15.6292 O.3     649 HOH649 0.0000
   1946 H1       4.8526    22.9118    15.5702 H       649 HOH649 0.0000
   1947 H2       3.4722    22.3227    15.3717 H       649 HOH649 0.0000
   1948 O       20.1593     2.1272     5.5890 O.3     650 HOH650 0.0000
   1949 H1      19.9398     1.8895     6.4898 H       650 HOH650 0.0000
   1950 H2      19.4616     2.7257     5.3219 H       650 HOH650 0.0000
   1951 O       21.4377     1.6193    17.8345 O.3     651 HOH651 0.0000
   1952 H1      20.6766     1.0874    18.0669 H       651 HOH651 0.0000
   1953 H2      21.9712     1.0469    17.2832 H       651 HOH651 0.0000
   1954 O       25.0855     2.7601    25.9394 O.3     652 HOH652 0.0000
   1955 H1      24.2574     2.8855    25.4760 H       652 HOH652 0.0000
   1956 H2      24.9591     3.2000    26.7800 H       652 HOH652 0.0000
   1957 O        3.4241    13.4600    24.3571 O.3     653 HOH653 0.0000
   1958 H1       2.6504    13.4923    23.7945 H       653 HOH653 0.0000
   1959 H2       3.1722    13.9499    25.1400 H       653 HOH653 0.0000
   1960 O        4.3248    19.7709    24.7205 O.3     654 HOH654 0.0000
   1961 H1       3.9238    19.1522    25.3309 H       654 HOH654 0.0000
   1962 H2       5.0965    20.0980    25.1827 H       654 HOH654 0.0000
   1963 O       22.1118    19.5286    12.6220 O.3     655 HOH655 0.0000
   1964 H1      21.7402    20.3350    12.9796 H       655 HOH655 0.0000
   1965 H2      23.0555    19.6204    12.7531 H       655 HOH655 0.0000
   1966 O       22.7030    27.7843    16.2771 O.3     656 HOH656 0.0000
   1967 H1      23.5489    27.3395    16.2235 H       656 HOH656 0.0000
   1968 H2      22.0686    27.1292    15.9862 H       656 HOH656 0.0000
   1969 O        1.8403    26.4096    25.2523 O.3     657 HOH657 0.0000
   1970 H1       1.2851    27.1616    25.0462 H       657 HOH657 0.0000
   1971 H2       2.7342    26.7359    25.1488 H       657 HOH657 0.0000
   1972 O       19.4561    23.1585     9.8691 O.3     658 HOH658 0.0000
   1973 H1      19.3760    22.9379    10.7970 H       658 HOH658 0.0000
   1974 H2      20.1743    22.6102     9.5532 H       658 HOH658 0.0000
   1975 O        4.2710    12.2809    20.7555 O.3     659 HOH659 0.0000
   1976 H1       5.2010    12.2889    20.9822 H       659 HOH659 0.0000
   1977 H2       4.2009    12.8763    20.0092 H       659 HOH659 0.0000
   1978 O        1.2934     9.2223    25.1648 O.3     660 HOH660 0.0000
   1979 H1       0.6502     9.1448    24.4601 H       660 HOH660 0.0000
   1980 H2       0.9391     9.9008    25.7395 H       660 HOH660 0.0000
   1981 O       15.1305    20.9240     6.2708 O.3     661 HOH661 0.0000
   1982 H1      16.0447    20.6416     6.2442 H       661 HOH661 0.0000
   1983 H2      14.9029    21.0866     5.3554 H       661 HOH661 0.0000
   1984 O        6.4163    26.2932     3.5772 O.3     662 HOH662 0.0000
   1985 H1       7.0423    26.6211     4.2228 H       662 HOH662 0.0000
   1986 H2       5.7772    26.9994     3.4824 H       662 HOH662 0.0000
   1987 O       14.9708     7.4806    15.3847 O.3     663 HOH663 0.0000
   1988 H1      14.1935     7.4597    15.9428 H       663 HOH663 0.0000
   1989 H2      15.5394     8.1356    15.7896 H       663 HOH663 0.0000
   1990 O       20.5225     4.7754    22.9374 O.3     664 HOH664 0.0000
   1991 H1      20.8342     5.6576    22.7353 H       664 HOH664 0.0000
   1992 H2      20.0912     4.4835    22.1343 H       664 HOH664 0.0000
   1993 O       14.3736    22.5976     8.4583 O.3     665 HOH665 0.0000
   1994 H1      15.2353    22.9932     8.3279 H       665 HOH665 0.0000
   1995 H2      14.0104    22.5172     7.5763 H       665 HOH665 0.0000
   1996 O        1.6828     7.5737    21.7791 O.3     666 HOH666 0.0000
   1997 H1       2.0683     8.2708    22.3098 H       666 HOH666 0.0000
   1998 H2       1.2128     7.0256    22.4075 H       666 HOH666 0.0000
   1999 O       27.5903    19.0530    26.8086 O.3     667 HOH667 0.0000
   2000 H1      27.3283    19.0003    27.7277 H       667 HOH667 0.0000
   2001 H2      28.1624    18.2967    26.6784 H       667 HOH667 0.0000
   2002 O       14.7557     9.4370    18.0531 O.3     668 HOH668 0.0000
   2003 H1      15.5008     9.7316    17.5295 H       668 HOH668 0.0000
   2004 H2      14.1324    10.1624    18.0131 H       668 HOH668 0.0000
   2005 O       20.0151    25.7989    23.5251 O.3     669 HOH669 0.0000
   2006 H1      19.4676    25.4446    24.2257 H       669 HOH669 0.0000
   2007 H2      19.8479    26.7412    23.5431 H       669 HOH669 0.0000
   2008 O       11.1658    23.6256    16.8474 O.3     670 HOH670 0.0000
   2009 H1      12.0441    24.0054    16.8699 H       670 HOH670 0.0000
   2010 H2      10.9969    23.4664    15.9187 H       670 HOH670 0.0000
   2011 O       14.2553     1.5078     9.6015 O.3     671 HOH671 0.0000
   2012 H1      13.7218     1.4461    10.3938 H       671 HOH671 0.0000
   2013 H2      15.0777     1.8992     9.8958 H       671 HOH671 0.0000
   2014 O       23.6584     1.2322     5.9764 O.3     672 HOH672 0.0000
   2015 H1      23.3541     0.3684     6.2546 H       672 HOH672 0.0000
   2016 H2      23.2604     1.8393     6.6004 H       672 HOH672 0.0000
   2017 O       20.1443     2.1239    12.9100 O.3     673 HOH673 0.0000
   2018 H1      20.7718     2.7808    12.6085 H       673 HOH673 0.0000
   2019 H2      20.6292     1.2991    12.8840 H       673 HOH673 0.0000
   2020 O       27.1831    27.9161     7.1758 O.3     674 HOH674 0.0000
   2021 H1      27.8607    28.5787     7.3107 H       674 HOH674 0.0000
   2022 H2      26.6777    28.2382     6.4294 H       674 HOH674 0.0000
   2023 O       23.4756     6.3150    18.2044 O.3     675 HOH675 0.0000
   2024 H1      23.3266     6.9539    17.5074 H       675 HOH675 0.0000
   2025 H2      23.6300     5.4898    17.7446 H       675 HOH675 0.0000
   2026 O        6.8724    27.0253    23.0853 O.3     676 HOH676 0.0000
   2027 H1       7.6144    27.1905    22.5035 H       676 HOH676 0.0000
   2028 H2       6.1026    27.2466    22.5613 H       676 HOH676 0.0000
   2029 O       26.6232     9.3061    26.7563 O.3     677 HOH677 0.0000
   2030 H1      26.0893     9.5507    26.0005 H       677 HOH677 0.0000
   2031 H2      25.9951     8.9671    27.3942 H       677 HOH677 0.0000
   2032 O        8.0032     5.1917     6.7440 O.3     678 HOH678 0.0000
   2033 H1       8.7620     4.8962     7.2470 H       678 HOH678 0.0000
   2034 H2       7.7872     6.0470     7.1156 H       678 HOH678 0.0000
   2035 O       22.0634    16.5536     4.9214 O.3     679 HOH679 0.0000
   2036 H1      21.3958    16.7390     4.2610 H       679 HOH679 0.0000
   2037 H2      22.1403    17.3671     5.4199 H       679 HOH679 0.0000
   2038 O       15.7479     2.5191    13.6547 O.3     680 HOH680 0.0000
   2039 H1      16.3805     1.9741    14.1228 H       680 HOH680 0.0000
   2040 H2      15.7917     3.3685    14.0937 H       680 HOH680 0.0000
   2041 O       18.0153    27.5420     1.8716 O.3     681 HOH681 0.0000
   2042 H1      18.8796    27.1364     1.8030 H       681 HOH681 0.0000
   2043 H2      17.9784    28.1541     1.1366 H       681 HOH681 0.0000
   2044 O        4.0164     1.6981    26.3939 O.3     682 HOH682 0.0000
   2045 H1       3.6448     2.0067    25.5675 H       682 HOH682 0.0000
   2046 H2       4.7473     2.2919    26.5650 H       682 HOH682 0.0000
   2047 O       16.0890     3.6028     9.9025 O.3     683 HOH683 0.0000
   2048 H1      15.6854     4.4102    10.2210 H       683 HOH683 0.0000
   2049 H2      15.9342     3.6134     8.9580 H       683 HOH683 0.0000
   2050 O        0.3093    21.2681     9.9867 O.3     684 HOH684 0.0000
   2051 H1      -0.1364    20.7343    10.6444 H       684 HOH684 0.0000
   2052 H2       0.8749    21.8508    10.4935 H       684 HOH684 0.0000
   2053 O       14.6194     3.9635    27.0500 O.3     685 HOH685 0.0000
   2054 H1      14.0178     4.5127    26.5472 H       685 HOH685 0.0000
   2055 H2      15.1200     4.5814    27.5828 H       685 HOH685 0.0000
   2056 O       15.1222    10.1850     1.8672 O.3     686 HOH686 0.0000
   2057 H1      15.3932    10.7844     2.5626 H       686 HOH686 0.0000
   2058 H2      15.7208    10.3707     1.1437 H       686 HOH686 0.0000
   2059 O       13.8328     4.3156    15.9384 O.3     687 HOH687 0.0000
   2060 H1      14.6847     4.2746    15.5039 H       687 HOH687 0.0000
   2061 H2      13.9522     4.9551    16.6407 H       687 HOH687 0.0000
   2062 O        8.1867    21.7548    14.9987 O.3     688 HOH688 0.0000
   2063 H1       8.7700    21.5230    14.2760 H       688 HOH688 0.0000
   2064 H2       7.5226    22.3172    14.6002 H       688 HOH688 0.0000
   2065 O        5.8563    12.4332     1.7795 O.3     689 HOH689 0.0000
   2066 H1       5.7717    12.8782     0.9362 H       689 HOH689 0.0000
   2067 H2       5.2194    12.8690     2.3457 H       689 HOH689 0.0000
   2068 O       24.6760    11.8228    13.8302 O.3     690 HOH690 0.0000
   2069 H1      24.3314    12.6386    13.4669 H       690 HOH690 0.0000
   2070 H2      25.6189    11.8690    13.6720 H       690 HOH690 0.0000
   2071 O       17.7459    13.9529     3.2232 O.3     691 HOH691 0.0000
   2072 H1      18.0036    14.4466     4.0017 H       691 HOH691 0.0000
   2073 H2      18.4235    14.1525     2.5772 H       691 HOH691 0.0000
   2074 O        1.0326    15.6447     4.2832 O.3     692 HOH692 0.0000
   2075 H1       0.9845    15.5104     3.3367 H       692 HOH692 0.0000
   2076 H2       0.2514    16.1566     4.4929 H       692 HOH692 0.0000
   2077 O       18.0851    18.7870    14.1507 O.3     693 HOH693 0.0000
   2078 H1      18.1019    18.4704    15.0538 H       693 HOH693 0.0000
   2079 H2      17.1601    18.7646    13.9056 H       693 HOH693 0.0000
   2080 O       24.9472     9.4359     2.9366 O.3     694 HOH694 0.0000
   2081 H1      24.2989     8.7323     2.9660 H       694 HOH694 0.0000
   2082 H2      24.6565    10.0003     2.2202 H       694 HOH694 0.0000
   2083 O       27.1897     8.5392    20.9578 O.3     695 HOH695 0.0000
   2084 H1      28.1274     8.3469    20.9565 H       695 HOH695 0.0000
   2085 H2      26.8218     7.9352    21.6028 H       695 HOH695 0.0000
   2086 O       10.5654    18.3800     7.7467 O.3     696 HOH696 0.0000
   2087 H1      11.3529    18.9240     7.7372 H       696 HOH696 0.0000
   2088 H2      10.4640    18.0887     6.8405 H       696 HOH696 0.0000
   2089 O        4.4639    15.9845     6.0140 O.3     697 HOH697 0.0000
   2090 H1       4.4227    16.4012     6.8747 H       697 HOH697 0.0000
   2091 H2       4.1951    16.6699     5.4023 H       697 HOH697 0.0000
   2092 O        2.5400    27.9160     3.0164 O.3     698 HOH698 0.0000
   2093 H1       2.0756    27.2279     2.5399 H       698 HOH698 0.0000
   2094 H2       1.8616    28.3484     3.5351 H       698 HOH698 0.0000
   2095 O       15.9735    23.5661    26.0875 O.3     699 HOH699 0.0000
   2096 H1      16.5749    24.3105    26.0685 H       699 HOH699 0.0000
   2097 H2      16.2107    23.0463    25.3195 H       699 HOH699 0.0000
   2098 O       11.0456    24.7751     0.4862 O.3     700 HOH700 0.0000
   2099 H1      11.9021    24.7762     0.0588 H       700 HOH700 0.0000
   2100 H2      10.4441    24.4475    -0.1825 H       700 HOH700 0.0000
   2101 O       12.7434    19.8950     7.2700 O.3     701 HOH701 0.0000
   2102 H1      12.4826    20.7979     7.0881 H       701 HOH701 0.0000
   2103 H2      13.7003    19.9139     7.2547 H       701 HOH701 0.0000
   2104 O       16.5678     7.5036    24.5462 O.3     702 HOH702 0.0000
   2105 H1      16.7961     7.4596    23.6177 H       702 HOH702 0.0000
   2106 H2      17.1971     6.9241    24.9758 H       702 HOH702 0.0000
   2107 O        1.2940    19.4124    15.4364 O.3     703 HOH703 0.0000
   2108 H1       0.4461    19.2851    15.0109 H       703 HOH703 0.0000
   2109 H2       1.8360    19.8346    14.7700 H       703 HOH703 0.0000
   2110 O       25.2867    12.5005    26.3794 O.3     704 HOH704 0.0000
   2111 H1      24.6348    12.3001    27.0511 H       704 HOH704 0.0000
   2112 H2      25.0312    13.3606    26.0460 H       704 HOH704 0.0000
   2113 O        2.4125     1.4661    10.1930 O.3     705 HOH705 0.0000
   2114 H1       2.4882     0.9732     9.3760 H       705 HOH705 0.0000
   2115 H2       2.4874     0.8043    10.8804 H       705 HOH705 0.0000
   2116 O       26.2878     5.3203     5.3182 O.3     706 HOH706 0.0000
   2117 H1      26.0127     6.2298     5.4338 H       706 HOH706 0.0000
   2118 H2      25.4999     4.8675     5.0176 H       706 HOH706 0.0000
   2119 O       23.5386    25.5688     4.7128 O.3     707 HOH707 0.0000
   2120 H1      22.6103    25.6737     4.5040 H       707 HOH707 0.0000
   2121 H2      23.9809    25.6051     3.8647 H       707 HOH707 0.0000
   2122 O       19.0273    17.2911     9.0857 O.3     708 HOH708 0.0000
   2123 H1      19.2944    17.6813     9.9179 H       708 HOH708 0.0000
   2124 H2      18.3199    17.8547     8.7724 H       708 HOH708 0.0000
   2125 O       12.5597    27.9920    24.9491 O.3     709 HOH709 0.0000
   2126 H1      13.1270    28.4055    25.5999 H       709 HOH709 0.0000
   2127 H2      11.7592    27.7794    25.4290 H       709 HOH709 0.0000
   2128 O       14.9397     9.6005    24.8437 O.3     710 HOH710 0.0000
   2129 H1      14.6378     9.8040    23.9585 H       710 HOH710 0.0000
   2130 H2      15.3074     8.7194    24.7752 H       710 HOH710 0.0000
   2131 O        3.9683    12.4198    13.3979 O.3     711 HOH711 0.0000
   2132 H1       4.6196    12.9055    12.8918 H       711 HOH711 0.0000
   2133 H2       3.2325    12.3066    12.7962 H       711 HOH711 0.0000
   2134 O       26.2623     2.1586    20.8395 O.3     712 HOH712 0.0000
   2135 H1      27.0889     2.4775    20.4774 H       712 HOH712 0.0000
   2136 H2      25.7883     1.8096    20.0847 H       712 HOH712 0.0000
   2137 O        2.7930    23.0221     2.8011 O.3     713 HOH713 0.0000
   2138 H1       2.2992    22.8715     3.6071 H       713 HOH713 0.0000
   2139 H2       3.0868    23.9308     2.8660 H       713 HOH713 0.0000
   2140 O       16.5738     7.9898     7.1784 O.3     714 HOH714 0.0000
   2141 H1      15.8694     7.6352     6.6359 H       714 HOH714 0.0000
   2142 H2      17.2481     7.3104     7.1705 H       714 HOH714 0.0000
   2143 O       18.4863    15.0466     5.6114 O.3     715 HOH715 0.0000
   2144 H1      18.5877    15.9947     5.5276 H       715 HOH715 0.0000
   2145 H2      18.4937    14.8869     6.5552 H       715 HOH715 0.0000
   2146 O       10.0524    11.1759     3.4114 O.3     716 HOH716 0.0000
   2147 H1      10.0091    10.4112     3.9855 H       716 HOH716 0.0000
   2148 H2       9.3655    11.7584     3.7355 H       716 HOH716 0.0000
   2149 O        8.5544    22.3966    20.7846 O.3     717 HOH717 0.0000
   2150 H1       9.5106    22.3518    20.7908 H       717 HOH717 0.0000
   2151 H2       8.3433    23.1023    21.3959 H       717 HOH717 0.0000
   2152 O        0.6327     1.2104     4.5239 O.3     718 HOH718 0.0000
   2153 H1      -0.3051     1.1523     4.7065 H       718 HOH718 0.0000
   2154 H2       0.9528     1.8837     5.1242 H       718 HOH718 0.0000
   2155 O       14.0639    19.6677    20.2185 O.3     719 HOH719 0.0000
   2156 H1      13.8964    19.7648    19.2811 H       719 HOH719 0.0000
   2157 H2      13.3799    20.1881    20.6397 H       719 HOH719 0.0000
   2158 O       11.7715     5.0176     1.1563 O.3     720 HOH720 0.0000
   2159 H1      11.2215     5.4485     1.8106 H       720 HOH720 0.0000
   2160 H2      12.3654     4.4672     1.6669 H       720 HOH720 0.0000
   2161 O        9.0639    16.3186    15.6000 O.3     721 HOH721 0.0000
   2162 H1       9.6529    16.2172    14.8523 H       721 HOH721 0.0000
   2163 H2       8.4641    15.5754    15.5355 H       721 HOH721 0.0000
   2164 O       22.0648    17.2503    23.3613 O.3     722 HOH722 0.0000
   2165 H1      21.5620    18.0616    23.4331 H       722 HOH722 0.0000
   2166 H2      21.9510    16.8215    24.2095 H       722 HOH722 0.0000
   2167 O        3.3671    18.6444     2.1784 O.3     723 HOH723 0.0000
   2168 H1       2.9816    18.1587     2.9076 H       723 HOH723 0.0000
   2169 H2       3.7961    19.3947     2.5898 H       723 HOH723 0.0000
   2170 O        6.7570    24.6369     0.3013 O.3     724 HOH724 0.0000
   2171 H1       7.0309    25.4611     0.7037 H       724 HOH724 0.0000
   2172 H2       5.8064    24.7143     0.2192 H       724 HOH724 0.0000
   2173 O       26.3051    27.2445     2.6562 O.3     725 HOH725 0.0000
   2174 H1      25.7234    27.4523     1.9250 H       725 HOH725 0.0000
   2175 H2      27.1538    27.6035     2.3973 H       725 HOH725 0.0000
   2176 O       17.0737    23.4681     8.3242 O.3     726 HOH726 0.0000
   2177 H1      17.9156    23.5183     8.7768 H       726 HOH726 0.0000
   2178 H2      17.2994    23.2425     7.4218 H       726 HOH726 0.0000
   2179 O       26.2322    24.2048     8.6014 O.3     727 HOH727 0.0000
   2180 H1      26.9487    24.4425     8.0130 H       727 HOH727 0.0000
   2181 H2      25.9297    25.0390     8.9604 H       727 HOH727 0.0000
   2182 O       14.6215     5.8192    10.7108 O.3     728 HOH728 0.0000
   2183 H1      14.4286     6.5828    10.1668 H       728 HOH728 0.0000
   2184 H2      14.9040     6.1864    11.5483 H       728 HOH728 0.0000
   2185 O        4.4157     5.5333    13.0755 O.3     729 HOH729 0.0000
   2186 H1       3.8611     4.9268    12.5847 H       729 HOH729 0.0000
   2187 H2       3.8135     5.9834    13.6679 H       729 HOH729 0.0000
   2188 O       17.7672    18.1196    16.8597 O.3     730 HOH730 0.0000
   2189 H1      17.7462    17.3511    17.4299 H       730 HOH730 0.0000
   2190 H2      18.3185    18.7487    17.3250 H       730 HOH730 0.0000
   2191 O       21.7088    27.9671     1.0771 O.3     731 HOH731 0.0000
   2192 H1      22.6221    28.1769     0.8817 H       731 HOH731 0.0000
   2193 H2      21.6016    28.1982     1.9998 H       731 HOH731 0.0000
   2194 O       25.8244    27.7015    16.9099 O.3     732 HOH732 0.0000
   2195 H1      25.3376    28.4716    17.2035 H       732 HOH732 0.0000
   2196 H2      26.1100    27.9218    16.0232 H       732 HOH732 0.0000
   2197 O       18.7503    23.9890     3.3566 O.3     733 HOH733 0.0000
   2198 H1      18.0645    23.5044     2.8972 H       733 HOH733 0.0000
   2199 H2      19.2328    24.4381     2.6626 H       733 HOH733 0.0000
   2200 O       18.3011    17.8456    24.2683 O.3     734 HOH734 0.0000
   2201 H1      18.0612    18.4196    24.9957 H       734 HOH734 0.0000
   2202 H2      18.3943    18.4338    23.5189 H       734 HOH734 0.0000
@<TRIPOS>BOND
     1     1     2 1
     2     1     3 1
     3     4     5 1
     4     4     6 1
     5     7     8 1
     6     7     9 1
     7    10    11 1
     8    10    12 1
     9    13    14 1
    10    13    15 1
    11    16    17 1
    12    16    18 1
    13    19    20 1
    14    19    21 1
    15    22    23 1
    16    22    24 1
    17    25    26 1
    18    25    27 1
    19    28    29 1
    20    28    30 1
    21    31    32 1
    22    31    33 1
    23    34    35 1
    24    34    36 1
    25    37    38 1
    26    37    39 1
    27    40    41 1
    28    40    42 1
    29    43    44 1
    30    43    45 1
    31    46    47 1
    32    46    48 1
    33    49    50 1
    34    49    51 1
    35    52    53 1
    36    52    54 1
    37    55    56 1
    38    55    57 1
    39    58    59 1
    40    58    60 1
    41    61    62 1
    42    61    63 1
    43    64    65 1
    44    64    66 1
    45    67    68 1
    46    67    69 1
    47    70    71 1
    48    70    72 1
    49    73    74 1
    50    73    75 1
    51    76    77 1
    52    76    78 1
    53    79    80 1
    54    79    81 1
    55    82    83 1
    56    82    84 1
    57    85    86 1
    58    85    87 1
    59    88    89 1
    60    88    90 1
    61    91    92 1
    62    91    93 1
    63    94    95 1
    64    94    96 1
    65    97    98 1
    66    97    99 1
    67   100   101 1
    68   100   102 1
    69   103   104 1
    70   103   105 1
    71   106   107 1
    72   106   108 1
    73   109   110 1
    74   109   111 1
    75   112   113 1
    76   112   114 1
    77   115   116 1
    78   115   117 1
    79   118   119 1
    80   118   120 1
    81   121   122 1
    82   121   123 1
    83   124   125 1
    84   124   126 1
    85   127   128 1
    86   127   129 1
    87   130   131 1
    88   130   132 1
    89   133   134 1
    90   133   135 1
    91   136   137 1
    92   136   138 1
    93   139   140 1
    94   139   141 1
    95   142   143 1
    96   142   144 1
    97   145   146 1
    98   145   147 1
    99   148   149 1
   100   148   150 1
   101   151   152 1
   102   151   153 1
   103   154   155 1
   104   154   156 1
   105   157   158 1
   106   157   159 1
   107   160   161 1
   108   160   162 1
   109   163   164 1
   110   163   165 1
   111   166   167 1
   112   166   168 1
   113   169   170 1
   114   169   171 1
   115   172   173 1
   116   172   174 1
   117   175   176 1
   118   175   177 1
   119   178   179 1
   120   178   180 1
   121   181   182 1
   122   181   183 1
   123   184   185 1
   124   184   186 1
   125   187   188 1
   126   187   189 1
   127   190   191 1
   128   190   192 1
   129   193   194 1
   130   193   195 1
   131   196   197 1
   132   196   198 1
   133   199   200 1
   134   199   201 1
   135   202   203 1
   136   202   204 1
   137   205   206 1
   138   205   207 1
   139   208   209 1
   140   208   210 1
   141   211   212 1
   142   211   213 1
   143   214   215 1
   144   214   216 1
   145   217   218 1
   146   217   219 1
   147   220   221 1
   148   220   222 1
   149   223   224 1
   150   223   225 1
   151   226   227 1
   152   226   228 1
   153   229   230 1
   154   229   231 1
   155   232   233 1
   156   232   234 1
   157   235   236 1
   158   235   237 1
   159   238   239 1
   160   238   240 1
   161   241   242 1
   162   241   243 1
   163   244   245 1
   164   244   246 1
   165   247   248 1
   166   247   249 1
   167   250   251 1
   168   250   252 1
   169   253   254 1
   170   253   255 1
   171   256   257 1
   172   256   258 1
   173   259   260 1
   174   259   261 1
   175   262   263 1
   176   262   264 1
   177   265   266 1
   178   265   267 1
   179   268   269 1
   180   268   270 1
   181   271   272 1
   182   271   273 1
   183   274   275 1
   184   274   276 1
   185   277   278 1
   186   277   279 1
   187   280   281 1
   188   280   282 1
   189   283   284 1
   190   283   285 1
   191   286   287 1
   192   286   288 1
   193   289   290 1
   194   289   291 1
   195   292   293 1
   196   292   294 1
   197   295   296 1
   198   295   297 1
   199   298   299 1
   200   298   300 1
   201   301   302 1
   202   301   303 1
   203   304   305 1
   204   304   306 1
   205   307   308 1
   206   307   309 1
   207   310   311 1
   208   310   312 1
   209   313   314 1
   210   313   315 1
   211   316   317 1
   212   316   318 1
   213   319   320 1
   214   319   321 1
   215   322   323 1
   216   322   324 1
   217   325   326 1
   218   325   327 1
   219   328   329 1
   220   328   330 1
   221   331   332 1
   222   331   333 1
   223   334   335 1
   224   334   336 1
   225   337   338 1
   226   337   339 1
   227   340   341 1
   228   340   342 1
   229   343   344 1
   230   343   345 1
   231   346   347 1
   232   346   348 1
   233   349   350 1
   234   349   351 1
   235   352   353 1
   236   352   354 1
   237   355   356 1
   238   355   357 1
   239   358   359 1
   240   358   360 1
   241   361   362 1
   242   361   363 1
   243   364   365 1
   244   364   366 1
   245   367   368 1
   246   367   369 1
   247   370   371 1
   248   370   372 1
   249   373   374 1
   250   373   375 1
   251   376   377 1
   252   376   378 1
   253   379   380 1
   254   379   381 1
   255   382   383 1
   256   382   384 1
   257   385   386 1
   258   385   387 1
   259   388   389 1
   260   388   390 1
   261   391   392 1
   262   391   393 1
   263   394   395 1
   264   394   396 1
   265   397   398 1
   266   397   399 1
   267   400   401 1
   268   400   402 1
   269   403   404 1
   270   403   405 1
   271   406   407 1
   272   406   408 1
   273   409   410 1
   274   409   411 1
   275   412   413 1
   276   412   414 1
   277   415   416 1
   278   415   417 1
   279   418   419 1
   280   418   420 1
   281   421   422 1
   282   421   423 1
   283   424   425 1
   284   424   426 1
   285   427   428 1
   286   427   429 1
   287   430   431 1
   288   430   432 1
   289   433   434 1
   290   433   435 1
   291   436   437 1
   292   436   438 1
   293   439   440 1
   294   439   441 1
   295   442   443 1
   296   442   444 1
   297   445   446 1
   298   445   447 1
   299   448   449 1
   300   448   450 1
   301   451   452 1
   302   451   453 1
   303   454   455 1
   304   454   456 1
   305   457   458 1
   306   457   459 1
   307   460   461 1
   308   460   462 1
   309   463   464 1
   310   463   465 1
   311   466   467 1
   312   466   468 1
   313   469   470 1
   314   469   471 1
   315   472   473 1
   316   472   474 1
   317   475   476 1
   318   475   477 1
   319   478   479 1
   320   478   480 1
   321   481   482 1
   322   481   483 1
   323   484   485 1
   324   484   486 1
   325   487   488 1
   326   487   489 1
   327   490   491 1
   328   490   492 1
   329   493   494 1
   330   493   495 1
   331   496   497 1
   332   496   498 1
   333   499   500 1
   334   499   501 1
   335   502   503 1
   336   502   504 1
   337   505   506 1
   338   505   507 1
   339   508   509 1
   340   508   510 1
   341   511   512 1
   342   511   513 1
   343   514   515 1
   344   514   516 1
   345   517   518 1
   346   517   519 1
   347   520   521 1
   348   520   522 1
   349   523   524 1
   350   523   525 1
   351   526   527 1
   352   526   528 1
   353   529   530 1
   354   529   531 1
   355   532   533 1
   356   532   534 1
   357   535   536 1
   358   535   537 1
   359   538   539 1
   360   538   540 1
   361   541   542 1
   362   541   543 1
   363   544   545 1
   364   544   546 1
   365   547   548 1
   366   547   549 1
   367   550   551 1
   368   550   552 1
   369   553   554 1
   370   553   555 1
   371   556   557 1
   372   556   558 1
   373   559   560 1
   374   559   561 1
   375   562   563 1
   376   562   564 1
   377   565   566 1
   378   565   567 1
   379   568   569 1
   380   568   570 1
   381   571   572 1
   382   571   573 1
   383   574   575 1
   384   574   576 1
   385   577   578 1
   386   577   579 1
   387   580   581 1
   388   580   582 1
   389   583   584 1
   390   583   585 1
   391   586   587 1
   392   586   588 1
   393   589   590 1
   394   589   591 1
   395   592   593 1
   396   592   594 1
   397   595   596 1
   398   595   597 1
   399   598   599 1
   400   598   600 1
   401   601   602 1
   402   601   603 1
   403   604   605 1
   404   604   606 1
   405   607   608 1
   406   607   609 1
   407   610   611 1
   408   610   612 1
   409   613   614 1
   410   613   615 1
   411   616   617 1
   412   616   618 1
   413   619   620 1
   414   619   621 1
   415   622   623 1
   416   622   624 1
   417   625   626 1
   418   625   627 1
   419   628   629 1
   420   628   630 1
   421   631   632 1
   422   631   633 1
   423   634   635 1
   424   634   636 1
   425   637   638 1
   426   637   639 1
   427   640   641 1
   428   640   642 1
   429   643   644 1
   430   643   645 1
   431   646   647 1
   432   646   648 1
   433   649   650 1
   434   649   651 1
   435   652   653 1
   436   652   654 1
   437   655   656 1
   438   655   657 1
   439   658   659 1
   440   658   660 1
   441   661   662 1
   442   661   663 1
   443   664   665 1
   444   664   666 1
   445   667   668 1
   446   667   669 1
   447   670   671 1
   448   670   672 1
   449   673   674 1
   450   673   675 1
   451   676   677 1
   452   676   678 1
   453   679   680 1
   454   679   681 1
   455   682   683 1
   456   682   684 1
   457   685   686 1
   458   685   687 1
   459   688   689 1
   460   688   690 1
   461   691   692 1
   462   691   693 1
   463   694   695 1
   464   694   696 1
   465   697   698 1
   466   697   699 1
   467   700   701 1
   468   700   702 1
   469   703   704 1
   470   703   705 1
   471   706   707 1
   472   706   708 1
   473   709   710 1
   474   709   711 1
   475   712   713 1
   476   712   714 1
   477   715   716 1
   478   715   717 1
   479   718   719 1
   480   718   720 1
   481   721   722 1
   482   721   723 1
   483   724   725 1
   484   724   726 1
   485   727   728 1
   486   727   729 1
   487   730   731 1
   488   730   732 1
   489   733   734 1
   490   733   735 1
   491   736   737 1
   492   736   738 1
   493   739   740 1
   494   739   741 1
   495   742   743 1
   496   742   744 1
   497   745   746 1
   498   745   747 1
   499   748   749 1
   500   748   750 1
   501   751   752 1
   502   751   753 1
   503   754   755 1
   504   754   756 1
   505   757   758 1
   506   757   759 1
   507   760   761 1
   508   760   762 1
   509   763   764 1
   510   763   765 1
   511   766   767 1
   512   766   768 1
   513   769   770 1
   514   769   771 1
   515   772   773 1
   516   772   774 1
   517   775   776 1
   518   775   777 1
   519   778   779 1
   520   778   780 1
   521   781   782 1
   522   781   783 1
   523   784   785 1
   524   784   786 1
   525   787   788 1
   526   787   789 1
   527   790   791 1
   528   790   792 1
   529   793   794 1
   530   793   795 1
   531   796   797 1
   532   796   798 1
   533   799   800 1
   534   799   801 1
   535   802   803 1
   536   802   804 1
   537   805   806 1
   538   805   807 1
   539   808   809 1
   540   808   810 1
   541   811   812 1
   542   811   813 1
   543   814   815 1
   544   814   816 1
   545   817   818 1
   546   817   819 1
   547   820   821 1
   548   820   822 1
   549   823   824 1
   550   823   825 1
   551   826   827 1
   552   826   828 1
   553   829   830 1
   554   829   831 1
   555   832   833 1
   556   832   834 1
   557   835   836 1
   558   835   837 1
   559   838   839 1
   560   838   840 1
   561   841   842 1
   562   841   843 1
   563   844   845 1
   564   844   846 1
   565   847   848 1
   566   847   849 1
   567   850   851 1
   568   850   852 1
   569   853   854 1
   570   853   855 1
   571   856   857 1
   572   856   858 1
   573   859   860 1
   574   859   861 1
   575   862   863 1
   576   862   864 1
   577   865   866 1
   578   865   867 1
   579   868   869 1
   580   868   870 1
   581   871   872 1
   582   871   873 1
   583   874   875 1
   584   874   876 1
   585   877   878 1
   586   877   879 1
   587   880   881 1
   588   880   882 1
   589   883   884 1
   590   883   885 1
   591   886   887 1
   592   886   888 1
   593   889   890 1
   594   889   891 1
   595   892   893 1
   596   892   894 1
   597   895   896 1
   598   895   897 1
   599   898   899 1
   600   898   900 1
   601   901   902 1
   602   901   903 1
   603   904   905 1
   604   904   906 1
   605   907   908 1
   606   907   909 1
   607   910   911 1
   608   910   912 1
   609   913   914 1
   610   913   915 1
   611   916   917 1
   612   916   918 1
   613   919   920 1
   614   919   921 1
   615   922   923 1
   616   922   924 1
   617   925   926 1
   618   925   927 1
   619   928   929 1
   620   928   930 1
   621   931   932 1
   622   931   933 1
   623   934   935 1
   624   934   936 1
   625   937   938 1
   626   937   939 1
   627   940   941 1
   628   940   942 1
   629   943   944 1
   630   943   945 1
   631   946   947 1
   632   946   948 1
   633   949   950 1
   634   949   951 1
   635   952   953 1
   636   952   954 1
   637   955   956 1
   638   955   957 1
   639   958   959 1
   640   958   960 1
   641   961   962 1
   642   961   963 1
   643   964   965 1
   644   964   966 1
   645   967   968 1
   646   967   969 1
   647   970   971 1
   648   970   972 1
   649   973   974 1
   650   973   975 1
   651   976   977 1
   652   976   978 1
   653   979   980 1
   654   979   981 1
   655   982   983 1
   656   982   984 1
   657   985   986 1
   658   985   987 1
   659   988   989 1
   660   988   990 1
   661   991   992 1
   662   991   993 1
   663   994   995 1
   664   994   996 1
   665   997   998 1
   666   997   999 1
   667  1000  1001 1
   668  1000  1002 1
   669  1003  1004 1
   670  1003  1005 1
   671  1006  1007 1
   672  1006  1008 1
   673  1009  1010 1
   674  1009  1011 1
   675  1012  1013 1
   676  1012  1014 1
   677  1015  1016 1
   678  1015  1017 1
   679  1018  1019 1
   680  1018  1020 1
   681  1021  1022 1
   682  1021  1023 1
   683  1024  1025 1
   684  1024  1026 1
   685  1027  1028 1
   686  1027  1029 1
   687  1030  1031 1
   688  1030  1032 1
   689  1033  1034 1
   690  1033  1035 1
   691  1036  1037 1
   692  1036  1038 1
   693  1039  1040 1
   694  1039  1041 1
   695  1042  1043 1
   696  1042  1044 1
   697  1045  1046 1
   698  1045  1047 1
   699  1048  1049 1
   700  1048  1050 1
   701  1051  1052 1
   702  1051  1053 1
   703  1054  1055 1
   704  1054  1056 1
   705  1057  1058 1
   706  1057  1059 1
   707  1060  1061 1
   708  1060  1062 1
   709  1063  1064 1
   710  1063  1065 1
   711  1066  1067 1
   712  1066  1068 1
   713  1069  1070 1
   714  1069  1071 1
   715  1072  1073 1
   716  1072  1074 1
   717  1075  1076 1
   718  1075  1077 1
   719  1078  1079 1
   720  1078  1080 1
   721  1081  1082 1
   722  1081  1083 1
   723  1084  1085 1
   724  1084  1086 1
   725  1087  1088 1
   726  1087  1089 1
   727  1090  1091 1
   728  1090  1092 1
   729  1093  1094 1
   730  1093  1095 1
   731  1096  1097 1
   732  1096  1098 1
   733  1099  1100 1
   734  1099  1101 1
   735  1102  1103 1
   736  1102  1104 1
   737  1105  1106 1
   738  1105  1107 1
   739  1108  1109 1
   740  1108  1110 1
   741  1111  1112 1
   742  1111  1113 1
   743  1114  1115 1
   744  1114  1116 1
   745  1117  1118 1
   746  1117  1119 1
   747  1120  1121 1
   748  1120  1122 1
   749  1123  1124 1
   750  1123  1125 1
   751  1126  1127 1
   752  1126  1128 1
   753  1129  1130 1
   754  1129  1131 1
   755  1132  1133 1
   756  1132  1134 1
   757  1135  1136 1
   758  1135  1137 1
   759  1138  1139 1
   760  1138  1140 1
   761  1141  1142 1
   762  1141  1143 1
   763  1144  1145 1
   764  1144  1146 1
   765  1147  1148 1
   766  1147  1149 1
   767  1150  1151 1
   768  1150  1152 1
   769  1153  1154 1
   770  1153  1155 1
   771  1156  1157 1
   772  1156  1158 1
   773  1159  1160 1
   774  1159  1161 1
   775  1162  1163 1
   776  1162  1164 1
   777  1165  1166 1
   778  1165  1167 1
   779  1168  1169 1
   780  1168  1170 1
   781  1171  1172 1
   782  1171  1173 1
   783  1174  1175 1
   784  1174  1176 1
   785  1177  1178 1
   786  1177  1179 1
   787  1180  1181 1
   788  1180  1182 1
   789  1183  1184 1
   790  1183  1185 1
   791  1186  1187 1
   792  1186  1188 1
   793  1189  1190 1
   794  1189  1191 1
   795  1192  1193 1
   796  1192  1194 1
   797  1195  1196 1
   798  1195  1197 1
   799  1198  1199 1
   800  1198  1200 1
   801  1201  1202 1
   802  1201  1203 1
   803  1204  1205 1
   804  1204  1206 1
   805  1207  1208 1
   806  1207  1209 1
   807  1210  1211 1
   808  1210  1212 1
   809  1213  1214 1
   810  1213  1215 1
   811  1216  1217 1
   812  1216  1218 1
   813  1219  1220 1
   814  1219  1221 1
   815  1222  1223 1
   816  1222  1224 1
   817  1225  1226 1
   818  1225  1227 1
   819  1228  1229 1
   820  1228  1230 1
   821  1231  1232 1
   822  1231  1233 1
   823  1234  1235 1
   824  1234  1236 1
   825  1237  1238 1
   826  1237  1239 1
   827  1240  1241 1
   828  1240  1242 1
   829  1243  1244 1
   830  1243  1245 1
   831  1246  1247 1
   832  1246  1248 1
   833  1249  1250 1
   834  1249  1251 1
   835  1252  1253 1
   836  1252  1254 1
   837  1255  1256 1
   838  1255  1257 1
   839  1258  1259 1
   840  1258  1260 1
   841  1261  1262 1
   842  1261  1263 1
   843  1264  1265 1
   844  1264  1266 1
   845  1267  1268 1
   846  1267  1269 1
   847  1270  1271 1
   848  1270  1272 1
   849  1273  1274 1
   850  1273  1275 1
   851  1276  1277 1
   852  1276  1278 1
   853  1279  1280 1
   854  1279  1281 1
   855  1282  1283 1
   856  1282  1284 1
   857  1285  1286 1
   858  1285  1287 1
   859  1288  1289 1
   860  1288  1290 1
   861  1291  1292 1
   862  1291  1293 1
   863  1294  1295 1
   864  1294  1296 1
   865  1297  1298 1
   866  1297  1299 1
   867  1300  1301 1
   868  1300  1302 1
   869  1303  1304 1
   870  1303  1305 1
   871  1306  1307 1
   872  1306  1308 1
   873  1309  1310 1
   874  1309  1311 1
   875  1312  1313 1
   876  1312  1314 1
   877  1315  1316 1
   878  1315  1317 1
   879  1318  1319 1
   880  1318  1320 1
   881  1321  1322 1
   882  1321  1323 1
   883  1324  1325 1
   884  1324  1326 1
   885  1327  1328 1
   886  1327  1329 1
   887  1330  1331 1
   888  1330  1332 1
   889  1333  1334 1
   890  1333  1335 1
   891  1336  1337 1
   892  1336  1338 1
   893  1339  1340 1
   894  1339  1341 1
   895  1342  1343 1
   896  1342  1344 1
   897  1345  1346 1
   898  1345  1347 1
   899  1348  1349 1
   900  1348  1350 1
   901  1351  1352 1
   902  1351  1353 1
   903  1354  1355 1
   904  1354  1356 1
   905  1357  1358 1
   906  1357  1359 1
   907  1360  1361 1
   908  1360  1362 1
   909  1363  1364 1
   910  1363  1365 1
   911  1366  1367 1
   912  1366  1368 1
   913  1369  1370 1
   914  1369  1371 1
   915  1372  1373 1
   916  1372  1374 1
   917  1375  1376 1
   918  1375  1377 1
   919  1378  1379 1
   920  1378  1380 1
   921  1381  1382 1
   922  1381  1383 1
   923  1384  1385 1
   924  1384  1386 1
   925  1387  1388 1
   926  1387  1389 1
   927  1390  1391 1
   928  1390  1392 1
   929  1393  1394 1
   930  1393  1395 1
   931  1396  1397 1
   932  1396  1398 1
   933  1399  1400 1
   934  1399  1401 1
   935  1402  1403 1
   936  1402  1404 1
   937  1405  1406 1
   938  1405  1407 1
   939  1408  1409 1
   940  1408  1410 1
   941  1411  1412 1
   942  1411  1413 1
   943  1414  1415 1
   944  1414  1416 1
   945  1417  1418 1
   946  1417  1419 1
   947  1420  1421 1
   948  1420  1422 1
   949  1423  1424 1
   950  1423  1425 1
   951  1426  1427 1
   952  1426  1428 1
   953  1429  1430 1
   954  1429  1431 1
   955  1432  1433 1
   956  1432  1434 1
   957  1435  1436 1
   958  1435  1437 1
   959  1438  1439 1
   960  1438  1440 1
   961  1441  1442 1
   962  1441  1443 1
   963  1444  1445 1
   964  1444  1446 1
   965  1447  1448 1
   966  1447  1449 1
   967  1450  1451 1
   968  1450  1452 1
   969  1453  1454 1
   970  1453  1455 1
   971  1456  1457 1
   972  1456  1458 1
   973  1459  1460 1
   974  1459  1461 1
   975  1462  1463 1
   976  1462  1464 1
   977  1465  1466 1
   978  1465  1467 1
   979  1468  1469 1
   980  1468  1470 1
   981  1471  1472 1
   982  1471  1473 1
   983  1474  1475 1
   984  1474  1476 1
   985  1477  1478 1
   986  1477  1479 1
   987  1480  1481 1
   988  1480  1482 1
   989  1483  1484 1
   990  1483  1485 1
   991  1486  1487 1
   992  1486  1488 1
   993  1489  1490 1
   994  1489  1491 1
   995  1492  1493 1
   996  1492  1494 1
   997  1495  1496 1
   998  1495  1497 1
   999  1498  1499 1
  1000  1498  1500 1
  1001  1501  1502 1
  1002  1501  1503 1
  1003  1504  1505 1
  1004  1504  1506 1
  1005  1507  1508 1
  1006  1507  1509 1
  1007  1510  1511 1
  1008  1510  1512 1
  1009  1513  1514 1
  1010  1513  1515 1
  1011  1516  1517 1
  1012  1516  1518 1
  1013  1519  1520 1
  1014  1519  1521 1
  1015  1522  1523 1
  1016  1522  1524 1
  1017  1525  1526 1
  1018  1525  1527 1
  1019  1528  1529 1
  1020  1528  1530 1
  1021  1531  1532 1
  1022  1531  1533 1
  1023  1534  1535 1
  1024  1534  1536 1
  1025  1537  1538 1
  1026  1537  1539 1
  1027  1540  1541 1
  1028  1540  1542 1
  1029  1543  1544 1
  1030  1543  1545 1
  1031  1546  1547 1
  1032  1546  1548 1
  1033  1549  1550 1
  1034  1549  1551 1
  1035  1552  1553 1
  1036  1552  1554 1
  1037  1555  1556 1
  1038  1555  1557 1
  1039  1558  1559 1
  1040  1558  1560 1
  1041  1561  1562 1
  1042  1561  1563 1
  1043  1564  1565 1
  1044  1564  1566 1
  1045  1567  1568 1
  1046  1567  1569 1
  1047  1570  1571 1
  1048  1570  1572 1
  1049  1573  1574 1
  1050  1573  1575 1
  1051  1576  1577 1
  1052  1576  1578 1
  1053  1579  1580 1
  1054  1579  1581 1
  1055  1582  1583 1
  1056  1582  1584 1
  1057  1585  1586 1
  1058  1585  1587 1
  1059  1588  1589 1
  1060  1588  1590 1
  1061  1591  1592 1
  1062  1591  1593 1
  1063  1594  1595 1
  1064  1594  1596 1
  1065  1597  1598 1
  1066  1597  1599 1
  1067  1600  1601 1
  1068  1600  1602 1
  1069  1603  1604 1
  1070  1603  1605 1
  1071  1606  1607 1
  1072  1606  1608 1
  1073  1609  1610 1
  1074  1609  1611 1
  1075  1612  1613 1
  1076  1612  1614 1
  1077  1615  1616 1
  1078  1615  1617 1
  1079  1618  1619 1
  1080  1618  1620 1
  1081  1621  1622 1
  1082  1621  1623 1
  1083  1624  1625 1
  1084  1624  1626 1
  1085  1627  1628 1
  1086  1627  1629 1
  1087  1630  1631 1
  1088  1630  1632 1
  1089  1633  1634 1
  1090  1633  1635 1
  1091  1636  1637 1
  1092  1636  1638 1
  1093  1639  1640 1
  1094  1639  1641 1
  1095  1642  1643 1
  1096  1642  1644 1
  1097  1645  1646 1
  1098  1645  1647 1
  1099  1648  1649 1
  1100  1648  1650 1
  1101  1651  1652 1
  1102  1651  1653 1
  1103  1654  1655 1
  1104  1654  1656 1
  1105  1657  1658 1
  1106  1657  1659 1
  1107  1660  1661 1
  1108  1660  1662 1
  1109  1663  1664 1
  1110  1663  1665 1
  1111  1666  1667 1
  1112  1666  1668 1
  1113  1669  1670 1
  1114  1669  1671 1
  1115  1672  1673 1
  1116  1672  1674 1
  1117  1675  1676 1
  1118  1675  1677 1
  1119  1678  1679 1
  1120  1678  1680 1
  1121  1681  1682 1
  1122  1681  1683 1
  1123  1684  1685 1
  1124  1684  1686 1
  1125  1687  1688 1
  1126  1687  1689 1
  1127  1690  1691 1
  1128  1690  1692 1
  1129  1693  1694 1
  1130  1693  1695 1
  1131  1696  1697 1
  1132  1696  1698 1
  1133  1699  1700 1
  1134  1699  1701 1
  1135  1702  1703 1
  1136  1702  1704 1
  1137  1705  1706 1
  1138  1705  1707 1
  1139  1708  1709 1
  1140  1708  1710 1
  1141  1711  1712 1
  1142  1711  1713 1
  1143  1714  1715 1
  1144  1714  1716 1
  1145  1717  1718 1
  1146  1717  1719 1
  1147  1720  1721 1
  1148  1720  1722 1
  1149  1723  1724 1
  1150  1723  1725 1
  1151  1726  1727 1
  1152  1726  1728 1
  1153  1729  1730 1
  1154  1729  1731 1
  1155  1732  1733 1
  1156  1732  1734 1
  1157  1735  1736 1
  1158  1735  1737 1
  1159  1738  1739 1
  1160  1738  1740 1
  1161  1741  1742 1
  1162  1741  1743 1
  1163  1744  1745 1
  1164  1744  1746 1
  1165  1747  1748 1
  1166  1747  1749 1
  1167  1750  1751 1
  1168  1750  1752 1
  1169  1753  1754 1
  1170  1753  1755 1
  1171  1756  1757 1
  1172  1756  1758 1
  1173  1759  1760 1
  1174  1759  1761 1
  1175  1762  1763 1
  1176  1762  1764 1
  1177  1765  1766 1
  1178  1765  1767 1
  1179  1768  1769 1
  1180  1768  1770 1
  1181  1771  1772 1
  1182  1771  1773 1
  1183  1774  1775 1
  1184  1774  1776 1
  1185  1777  1778 1
  1186  1777  1779 1
  1187  1780  1781 1
  1188  1780  1782 1
  1189  1783  1784 1
  1190  1783  1785 1
  1191  1786  1787 1
  1192  1786  1788 1
  1193  1789  1790 1
  1194  1789  1791 1
  1195  1792  1793 1
  1196  1792  1794 1
  1197  1795  1796 1
  1198  1795  1797 1
  1199  1798  1799 1
  1200  1798  1800 1
  1201  1801  1802 1
  1202  1801  1803 1
  1203  1804  1805 1
  1204  1804  1806 1
  1205  1807  1808 1
  1206  1807  1809 1
  1207  1810  1811 1
  1208  1810  1812 1
  1209  1813  1814 1
  1210  1813  1815 1
  1211  1816  1817 1
  1212  1816  1818 1
  1213  1819  1820 1
  1214  1819  1821 1
  1215  1822  1823 1
  1216  1822  1824 1
  1217  1825  1826 1
  1218  1825  1827 1
  1219  1828  1829 1
  1220  1828  1830 1
  1221  1831  1832 1
  1222  1831  1833 1
  1223  1834  1835 1
  1224  1834  1836 1
  1225  1837  1838 1
  1226  1837  1839 1
  1227  1840  1841 1
  1228  1840  1842 1
  1229  1843  1844 1
  1230  1843  1845 1
  1231  1846  1847 1
  1232  1846  1848 1
  1233  1849  1850 1
  1234  1849  1851 1
  1235  1852  1853 1
  1236  1852  1854 1
  1237  1855  1856 1
  1238  1855  1857 1
  1239  1858  1859 1
  1240  1858  1860 1
  1241  1861  1862 1
  1242  1861  1863 1
  1243  1864  1865 1
  1244  1864  1866 1
  1245  1867  1868 1
  1246  1867  1869 1
  1247  1870  1871 1
  1248  1870  1872 1
  1249  1873  1874 1
  1250  1873  1875 1
  1251  1876  1877 1
  1252  1876  1878 1
  1253  1879  1880 1
  1254  1879  1881 1
  1255  1882  1883 1
  1256  1882  1884 1
  1257  1885  1886 1
  1258  1885  1887 1
  1259  1888  1889 1
  1260  1888  1890 1
  1261  1891  1892 1
  1262  1891  1893 1
  1263  1894  1895 1
  1264  1894  1896 1
  1265  1897  1898 1
  1266  1897  1899 1
  1267  1900  1901 1
  1268  1900  1902 1
  1269  1903  1904 1
  1270  1903  1905 1
  1271  1906  1907 1
  1272  1906  1908 1
  1273  1909  1910 1
  1274  1909  1911 1
  1275  1912  1913 1
  1276  1912  1914 1
  1277  1915  1916 1
  1278  1915  1917 1
  1279  1918  1919 1
  1280  1918  1920 1
  1281  1921  1922 1
  1282  1921  1923 1
  1283  1924  1925 1
  1284  1924  1926 1
  1285  1927  1928 1
  1286  1927  1929 1
  1287  1930  1931 1
  1288  1930  1932 1
  1289  1933  1934 1
  1290  1933  1935 1
  1291  1936  1937 1
  1292  1936  1938 1
  1293  1939  1940 1
  1294  1939  1941 1
  1295  1942  1943 1
  1296  1942  1944 1
  1297  1945  1946 1
  1298  1945  1947 1
  1299  1948  1949 1
  1300  1948  1950 1
  1301  1951  1952 1
  1302  1951  1953 1
  1303  1954  1955 1
  1304  1954  1956 1
  1305  1957  1958 1
  1306  1957  1959 1
  1307  1960  1961 1
  1308  1960  1962 1
  1309  1963  1964 1
  1310  1963  1965 1
  1311  1966  1967 1
  1312  1966  1968 1
  1313  1969  1970 1
  1314  1969  1971 1
  1315  1972  1973 1
  1316  1972  1974 1
  1317  1975  1976 1
  1318  1975  1977 1
  1319  1978  1979 1
  1320  1978  1980 1
  1321  1981  1982 1
  1322  1981  1983 1
  1323  1984  1985 1
  1324  1984  1986 1
  1325  1987  1988 1
  1326  1987  1989 1
  1327  1990  1991 1
  1328  1990  1992 1
  1329  1993  1994 1
  1330  1993  1995 1
  1331  1996  1997 1
  1332  1996  1998 1
  1333  1999  2000 1
  1334  1999  2001 1
  1335  2002  2003 1
  1336  2002  2004 1
  1337  2005  2006 1
  1338  2005  2007 1
  1339  2008  2009 1
  1340  2008  2010 1
  1341  2011  2012 1
  1342  2011  2013 1
  1343  2014  2015 1
  1344  2014  2016 1
  1345  2017  2018 1
  1346  2017  2019 1
  1347  2020  2021 1
  1348  2020  2022 1
  1349  2023  2024 1
  1350  2023  2025 1
  1351  2026  2027 1
  1352  2026  2028 1
  1353  2029  2030 1
  1354  2029  2031 1
  1355  2032  2033 1
  1356  2032  2034 1
  1357  2035  2036 1
  1358  2035  2037 1
  1359  2038  2039 1
  1360  2038  2040 1
  1361  2041  2042 1
  1362  2041  2043 1
  1363  2044  2045 1
  1364  2044  2046 1
  1365  2047  2048 1
  1366  2047  2049 1
  1367  2050  2051 1
  1368  2050  2052 1
  1369  2053  2054 1
  1370  2053  2055 1
  1371  2056  2057 1
  1372  2056  2058 1
  1373  2059  2060 1
  1374  2059  2061 1
  1375  2062  2063 1
  1376  2062  2064 1
  1377  2065  2066 1
  1378  2065  2067 1
  1379  2068  2069 1
  1380  2068  2070 1
  1381  2071  2072 1
  1382  2071  2073 1
  1383  2074  2075 1
  1384  2074  2076 1
  1385  2077  2078 1
  1386  2077  2079 1
  1387  2080  2081 1
  1388  2080  2082 1
  1389  2083  2084 1
  1390  2083  2085 1
  1391  2086  2087 1
  1392  2086  2088 1
  1393  2089  2090 1
  1394  2089  2091 1
  1395  2092  2093 1
  1396  2092  2094 1
  1397  2095  2096 1
  1398  2095  2097 1
  1399  2098  2099 1
  1400  2098  2100 1
  1401  2101  2102 1
  1402  2101  2103 1
  1403  2104  2105 1
  1404  2104  2106 1
  1405  2107  2108 1
  1406  2107  2109 1
  1407  2110  2111 1
  1408  2110  2112 1
  1409  2113  2114 1
  1410  2113  2115 1
  1411  2116  2117 1
  1412  2116  2118 1
  1413  2119  2120 1
  1414  2119  2121 1
  1415  2122  2123 1
  1416  2122  2124 1
  1417  2125  2126 1
  1418  2125  2127 1
  1419  2128  2129 1
  1420  2128  2130 1
  1421  2131  2132 1
  1422  2131  2133 1
  1423  2134  2135 1
  1424  2134  2136 1
  1425  2137  2138 1
  1426  2137  2139 1
  1427  2140  2141 1
  1428  2140  2142 1
  1429  2143  2144 1
  1430  2143  2145 1
  1431  2146  2147 1
  1432  2146  2148 1
  1433  2149  2150 1
  1434  2149  2151 1
  1435  2152  2153 1
  1436  2152  2154 1
  1437  2155  2156 1
  1438  2155  2157 1
  1439  2158  2159 1
  1440  2158  2160 1
  1441  2161  2162 1
  1442  2161  2163 1
  1443  2164  2165 1
  1444  2164  2166 1
  1445  2167  2168 1
  1446  2167  2169 1
  1447  2170  2171 1
  1448  2170  2172 1
  1449  2173  2174 1
  1450  2173  2175 1
  1451  2176  2177 1
  1452  2176  2178 1
  1453  2179  2180 1
  1454  2179  2181 1
  1455  2182  2183 1
  1456  2182  2184 1
  1457  2185  2186 1
  1458  2185  2187 1
  1459  2188  2189 1
  1460  2188  2190 1
  1461  2191  2192 1
  1462  2191  2193 1
  1463  2194  2195 1
  1464  2194  2196 1
  1465  2197  2198 1
  1466  2197  2199 1
  1467  2200  2201 1
  1468  2200  2202 1
@<TRIPOS>CRYSIN
   28.0000    28.0000    28.0000   90.000   90.000   90.000 1 1
