@<TRIPOS>MOLECULE
6734
 22 24 0 0 0
SMALL
GASTEIGER

@<TRIPOS>ATOM
      1 C           0.0000   -0.1257   -0.0001 C.ar    1  UNL1       -0.0115
      2 C           0.7768   -2.3652   -0.0005 C.3     1  UNL1       -0.0231
      3 C          -0.7766   -2.3653    0.0006 C.3     1  UNL1       -0.0231
      4 C           1.1255   -0.9065    0.0001 C.ar    1  UNL1       -0.0391
      5 C          -1.1254   -0.9065   -0.0001 C.ar    1  UNL1       -0.0391
      6 C           0.0000    1.2707    0.0000 C.ar    1  UNL1       -0.0174
      7 C           2.3684   -0.2973   -0.0001 C.ar    1  UNL1       -0.0580
      8 C          -2.3683   -0.2975   -0.0001 C.ar    1  UNL1       -0.0580
      9 C           1.2633    1.8908    0.0001 C.ar    1  UNL1       -0.0540
     10 C          -1.2635    1.8906   -0.0001 C.ar    1  UNL1       -0.0540
     11 C           2.4332    1.1061    0.0001 C.ar    1  UNL1       -0.0609
     12 C          -2.4334    1.1059   -0.0001 C.ar    1  UNL1       -0.0609
     13 H           1.1648   -2.8631   -0.8951 H       1  UNL1        0.0316
     14 H           1.1663   -2.8645    0.8926 H       1  UNL1        0.0316
     15 H          -1.1646   -2.8632    0.8952 H       1  UNL1        0.0316
     16 H          -1.1661   -2.8647   -0.8925 H       1  UNL1        0.0316
     17 H           3.2796   -0.8864   -0.0002 H       1  UNL1        0.0620
     18 H          -3.2795   -0.8867    0.0001 H       1  UNL1        0.0620
     19 H           1.3463    2.9744    0.0001 H       1  UNL1        0.0624
     20 H          -1.3466    2.9743    0.0000 H       1  UNL1        0.0624
     21 H           3.4037    1.5961    0.0000 H       1  UNL1        0.0618
     22 H          -3.4039    1.5958    0.0000 H       1  UNL1        0.0618
@<TRIPOS>BOND
     1     1     4   ar
     2     1     5   ar
     3     1     6   ar
     4     2     3    1
     5     2     4    1
     6     2    13    1
     7     2    14    1
     8     3     5    1
     9     3    15    1
    10     3    16    1
    11     4     7   ar
    12     5     8   ar
    13     6     9   ar
    14     6    10   ar
    15     7    11   ar
    16     7    17    1
    17     8    12   ar
    18     8    18    1
    19     9    11   ar
    20     9    19    1
    21    10    12   ar
    22    10    20    1
    23    11    21    1
    24    12    22    1
