@<TRIPOS>MOLECULE
9161
 20 22 0 0 0
SMALL
GASTEIGER

@<TRIPOS>ATOM
      1 C           0.0000   -0.1247    0.0000 C.ar    1  UNL1       -0.0036
      2 C           1.1183   -0.9148   -0.0001 C.ar    1  UNL1       -0.0167
      3 C          -1.1183   -0.9147    0.0001 C.ar    1  UNL1       -0.0167
      4 C           0.0001    1.2694    0.0000 C.ar    1  UNL1       -0.0168
      5 C           0.6728   -2.3016    0.0000 C.2     1  UNL1       -0.0534
      6 C          -0.6729   -2.3016    0.0000 C.2     1  UNL1       -0.0534
      7 C           2.3658   -0.3203    0.0000 C.ar    1  UNL1       -0.0540
      8 C          -2.3658   -0.3203    0.0000 C.ar    1  UNL1       -0.0540
      9 C           1.2696    1.8797    0.0000 C.ar    1  UNL1       -0.0540
     10 C          -1.2696    1.8797    0.0001 C.ar    1  UNL1       -0.0540
     11 C           2.4361    1.0846    0.0000 C.ar    1  UNL1       -0.0606
     12 C          -2.4360    1.0847   -0.0001 C.ar    1  UNL1       -0.0606
     13 H           1.3249   -3.1590    0.0000 H       1  UNL1        0.0624
     14 H          -1.3251   -3.1590    0.0001 H       1  UNL1        0.0624
     15 H           3.2742   -0.9135    0.0001 H       1  UNL1        0.0624
     16 H          -3.2742   -0.9135   -0.0001 H       1  UNL1        0.0624
     17 H           1.3605    2.9627    0.0001 H       1  UNL1        0.0624
     18 H          -1.3604    2.9627    0.0001 H       1  UNL1        0.0624
     19 H           3.4093    1.5696    0.0000 H       1  UNL1        0.0618
     20 H          -3.4092    1.5697   -0.0001 H       1  UNL1        0.0618
@<TRIPOS>BOND
     1     1     2   ar
     2     1     3   ar
     3     1     4   ar
     4     2     5    1
     5     2     7   ar
     6     3     6    1
     7     3     8   ar
     8     4     9   ar
     9     4    10   ar
    10     5     6    2
    11     5    13    1
    12     6    14    1
    13     7    11   ar
    14     7    15    1
    15     8    12   ar
    16     8    16    1
    17     9    11   ar
    18     9    17    1
    19    10    12   ar
    20    10    18    1
    21    11    19    1
    22    12    20    1
