@<TRIPOS>MOLECULE
9938
 20 21 0 0 0
SMALL
GASTEIGER

@<TRIPOS>ATOM
      1 C           1.2615   -1.4763    0.2267 C.3     1  UNL1       -0.0237
      2 C          -0.0300   -0.7130    0.0683 C.ar    1  UNL1       -0.0399
      3 C           2.4813   -0.7104   -0.3000 C.3     1  UNL1       -0.0304
      4 C          -0.0182    0.6947    0.0617 C.ar    1  UNL1       -0.0221
      5 C           2.4141    0.7655   -0.0385 C.2     1  UNL1       -0.0831
      6 C           1.2561    1.4162    0.1386 C.2     1  UNL1       -0.0583
      7 C          -1.2516   -1.3955    0.0102 C.ar    1  UNL1       -0.0580
      8 C          -1.2265    1.3979   -0.0117 C.ar    1  UNL1       -0.0543
      9 C          -2.4496   -0.6864   -0.0724 C.ar    1  UNL1       -0.0615
     10 C          -2.4371    0.7073   -0.0828 C.ar    1  UNL1       -0.0612
     11 H           1.3974   -1.6847    1.2958 H       1  UNL1        0.0316
     12 H           1.2011   -2.4426   -0.2882 H       1  UNL1        0.0316
     13 H           3.3859   -1.1260    0.1587 H       1  UNL1        0.0311
     14 H           2.5777   -0.8601   -1.3827 H       1  UNL1        0.0311
     15 H           3.3467    1.3215   -0.0203 H       1  UNL1        0.0572
     16 H           1.2425    2.4877    0.3051 H       1  UNL1        0.0620
     17 H          -1.2764   -2.4819    0.0342 H       1  UNL1        0.0620
     18 H          -1.2385    2.4852   -0.0175 H       1  UNL1        0.0624
     19 H          -3.3939   -1.2208   -0.1211 H       1  UNL1        0.0618
     20 H          -3.3719    1.2574   -0.1427 H       1  UNL1        0.0618
@<TRIPOS>BOND
     1     1     2    1
     2     1     3    1
     3     1    11    1
     4     1    12    1
     5     2     4   ar
     6     2     7   ar
     7     3     5    1
     8     3    13    1
     9     3    14    1
    10     4     6    1
    11     4     8   ar
    12     5     6    2
    13     5    15    1
    14     6    16    1
    15     7     9   ar
    16     7    17    1
    17     8    10   ar
    18     8    18    1
    19     9    10   ar
    20     9    19    1
    21    10    20    1
