@<TRIPOS>MOLECULE
7219
 17 18 0 0 0
SMALL
GASTEIGER

@<TRIPOS>ATOM
      1 C           0.2327    0.7102    0.0001 C.ar    1  UNL1       -0.0365
      2 C           1.6370    1.2290    0.0001 C.3     1  UNL1       -0.0086
      3 C           0.2498   -0.6917    0.0002 C.ar    1  UNL1       -0.0218
      4 C           2.4192   -0.0627   -0.0005 C.2     1  UNL1       -0.0791
      5 C           1.6292   -1.1479    0.0001 C.2     1  UNL1       -0.0579
      6 C          -0.9575    1.4149    0.0001 C.ar    1  UNL1       -0.0577
      7 C          -0.9264   -1.4208    0.0001 C.ar    1  UNL1       -0.0543
      8 C          -2.1497    0.6872   -0.0001 C.ar    1  UNL1       -0.0615
      9 C          -2.1344   -0.7183   -0.0002 C.ar    1  UNL1       -0.0612
     10 H           1.8471    1.8132   -0.9002 H       1  UNL1        0.0356
     11 H           1.8474    1.8125    0.9009 H       1  UNL1        0.0356
     12 H           3.4995   -0.1004   -0.0009 H       1  UNL1        0.0575
     13 H           1.9402   -2.1791    0.0000 H       1  UNL1        0.0621
     14 H          -0.9706    2.4991    0.0001 H       1  UNL1        0.0621
     15 H          -0.9208   -2.5055    0.0001 H       1  UNL1        0.0624
     16 H          -3.1012    1.2122   -0.0002 H       1  UNL1        0.0618
     17 H          -3.0744   -1.2638   -0.0005 H       1  UNL1        0.0618
@<TRIPOS>BOND
     1     1     2    1
     2     1     3   ar
     3     1     6   ar
     4     2     4    1
     5     2    10    1
     6     2    11    1
     7     3     5    1
     8     3     7   ar
     9     4     5    2
    10     4    12    1
    11     5    13    1
    12     6     8   ar
    13     6    14    1
    14     7     9   ar
    15     7    15    1
    16     8     9   ar
    17     8    16    1
    18     9    17    1
