@<TRIPOS>MOLECULE
69667
 16 17 0 0 0
SMALL
GASTEIGER

@<TRIPOS>ATOM
      1 C           2.0054   -0.7826   -0.0001 C.3     1  UNL1       -0.0234
      2 C           2.0053    0.7826    0.0002 C.3     1  UNL1       -0.0234
      3 C           0.5087   -0.6870    0.0001 C.ar    1  UNL1       -0.0439
      4 C           0.5086    0.6870    0.0000 C.ar    1  UNL1       -0.0439
      5 C          -0.6563   -1.4175    0.0000 C.ar    1  UNL1       -0.0583
      6 C          -0.6563    1.4175   -0.0001 C.ar    1  UNL1       -0.0583
      7 C          -1.8577   -0.7043    0.0001 C.ar    1  UNL1       -0.0615
      8 C          -1.8577    0.7042    0.0000 C.ar    1  UNL1       -0.0615
      9 H           2.4639   -1.2304    0.8883 H       1  UNL1        0.0316
     10 H           2.4637   -1.2300   -0.8889 H       1  UNL1        0.0316
     11 H           2.4638    1.2304   -0.8882 H       1  UNL1        0.0316
     12 H           2.4636    1.2300    0.8889 H       1  UNL1        0.0316
     13 H          -0.6468   -2.5007   -0.0001 H       1  UNL1        0.0620
     14 H          -0.6469    2.5008   -0.0002 H       1  UNL1        0.0620
     15 H          -2.8033   -1.2399    0.0001 H       1  UNL1        0.0618
     16 H          -2.8033    1.2397    0.0001 H       1  UNL1        0.0618
@<TRIPOS>BOND
     1     1     2    1
     2     1     3    1
     3     1     9    1
     4     1    10    1
     5     2     4    1
     6     2    11    1
     7     2    12    1
     8     3     4   ar
     9     3     5   ar
    10     4     6   ar
    11     5     7   ar
    12     5    13    1
    13     6     8   ar
    14     6    14    1
    15     7     8   ar
    16     7    15    1
    17     8    16    1
