@<TRIPOS>MOLECULE
7095
 22 23 0 0 0
SMALL
GASTEIGER

@<TRIPOS>ATOM
      1 C          -0.7234    0.0003   -0.0001 C.ar    1  UNL1       -0.0179
      2 C           0.7234   -0.0002   -0.0001 C.ar    1  UNL1       -0.0179
      3 C          -1.4206   -0.9586    0.7349 C.ar    1  UNL1       -0.0540
      4 C           1.4206    0.7348    0.9586 C.ar    1  UNL1       -0.0540
      5 C          -1.4210    0.9588   -0.7350 C.ar    1  UNL1       -0.0540
      6 C           1.4211   -0.7350   -0.9588 C.ar    1  UNL1       -0.0540
      7 C          -2.8154   -0.9588    0.7350 C.ar    1  UNL1       -0.0612
      8 C           2.8155    0.7351    0.9588 C.ar    1  UNL1       -0.0612
      9 C          -2.8159    0.9586   -0.7349 C.ar    1  UNL1       -0.0612
     10 C           2.8159   -0.7348   -0.9586 C.ar    1  UNL1       -0.0612
     11 C          -3.5132   -0.0002    0.0001 C.ar    1  UNL1       -0.0617
     12 C           3.5131    0.0001    0.0001 C.ar    1  UNL1       -0.0617
     13 H          -0.8923   -1.7130    1.3131 H       1  UNL1        0.0624
     14 H           0.8924    1.3132    1.7130 H       1  UNL1        0.0624
     15 H          -0.8931    1.7134   -1.3134 H       1  UNL1        0.0624
     16 H           0.8931   -1.3134   -1.7133 H       1  UNL1        0.0624
     17 H          -3.3584   -1.7054    1.3072 H       1  UNL1        0.0618
     18 H           3.3585    1.3074    1.7051 H       1  UNL1        0.0618
     19 H          -3.3593    1.7049   -1.3070 H       1  UNL1        0.0618
     20 H           3.3593   -1.3069   -1.7051 H       1  UNL1        0.0618
     21 H          -4.5992   -0.0004    0.0002 H       1  UNL1        0.0618
     22 H           4.5992    0.0003    0.0002 H       1  UNL1        0.0618
@<TRIPOS>BOND
     1     1     2    1
     2     1     3   ar
     3     1     5   ar
     4     2     4   ar
     5     2     6   ar
     6     3     7   ar
     7     3    13    1
     8     4     8   ar
     9     4    14    1
    10     5     9   ar
    11     5    15    1
    12     6    10   ar
    13     6    16    1
    14     7    11   ar
    15     7    17    1
    16     8    12   ar
    17     8    18    1
    18     9    11   ar
    19     9    19    1
    20    10    12   ar
    21    10    20    1
    22    11    21    1
    23    12    22    1
