@<TRIPOS>MOLECULE
9214
 20 22 0 0 0
SMALL
GASTEIGER

@<TRIPOS>ATOM
      1 C          -0.6994   -0.6944    0.0000 C.ar    1  UNL1       -0.0096
      2 C          -0.6994    0.6943    0.0001 C.ar    1  UNL1       -0.0096
      3 C           0.6994   -0.6944    0.0000 C.ar    1  UNL1       -0.0096
      4 C           0.6994    0.6942    0.0000 C.ar    1  UNL1       -0.0096
      5 C          -1.8381   -1.4424   -0.0001 C.ar    1  UNL1       -0.0534
      6 C          -1.8380    1.4424    0.0001 C.ar    1  UNL1       -0.0534
      7 C           1.8380   -1.4424    0.0001 C.ar    1  UNL1       -0.0534
      8 C           1.8380    1.4424   -0.0002 C.ar    1  UNL1       -0.0534
      9 C          -3.0322   -0.7107   -0.0001 C.ar    1  UNL1       -0.0611
     10 C          -3.0321    0.7107    0.0000 C.ar    1  UNL1       -0.0611
     11 C           3.0322   -0.7107    0.0001 C.ar    1  UNL1       -0.0611
     12 C           3.0321    0.7107   -0.0001 C.ar    1  UNL1       -0.0611
     13 H          -1.8310   -2.5240   -0.0002 H       1  UNL1        0.0624
     14 H          -1.8308    2.5240    0.0001 H       1  UNL1        0.0624
     15 H           1.8309   -2.5240    0.0001 H       1  UNL1        0.0624
     16 H           1.8308    2.5241   -0.0002 H       1  UNL1        0.0624
     17 H          -3.9832   -1.2381   -0.0001 H       1  UNL1        0.0618
     18 H          -3.9831    1.2382    0.0000 H       1  UNL1        0.0618
     19 H           3.9833   -1.2381    0.0002 H       1  UNL1        0.0618
     20 H           3.9831    1.2382   -0.0001 H       1  UNL1        0.0618
@<TRIPOS>BOND
     1     1     2   ar
     2     1     3    1
     3     1     5   ar
     4     2     4    1
     5     2     6   ar
     6     3     4   ar
     7     3     7   ar
     8     4     8   ar
     9     5     9   ar
    10     5    13    1
    11     6    10   ar
    12     6    14    1
    13     7    11   ar
    14     7    15    1
    15     8    12   ar
    16     8    16    1
    17     9    10   ar
    18     9    17    1
    19    10    18    1
    20    11    12   ar
    21    11    19    1
    22    12    20    1
