@<TRIPOS>MOLECULE
7580
 25 26 0 0 0
SMALL
GASTEIGER

@<TRIPOS>ATOM
      1 C          -0.0016    0.0000   -1.4531 C.3     1  UNL1       -0.0024
      2 C          -1.2519   -0.0001   -0.6400 C.ar    1  UNL1       -0.0431
      3 C           1.2689    0.0001   -0.6271 C.ar    1  UNL1       -0.0431
      4 C          -1.8366    1.2080   -0.2598 C.ar    1  UNL1       -0.0583
      5 C           1.8336   -1.2080   -0.2600 C.ar    1  UNL1       -0.0583
      6 C          -1.8370   -1.2081   -0.2602 C.ar    1  UNL1       -0.0583
      7 C           1.8338    1.2081   -0.2603 C.ar    1  UNL1       -0.0583
      8 C          -3.0062    1.2080    0.5004 C.ar    1  UNL1       -0.0615
      9 C           3.0031   -1.2081    0.5002 C.ar    1  UNL1       -0.0615
     10 C          -3.0066   -1.2079    0.5000 C.ar    1  UNL1       -0.0615
     11 C           3.0035    1.2079    0.4997 C.ar    1  UNL1       -0.0615
     12 C          -3.5911    0.0002    0.8803 C.ar    1  UNL1       -0.0617
     13 C           3.5881   -0.0003    0.8799 C.ar    1  UNL1       -0.0617
     14 H           0.0040   -0.8649   -2.1313 H       1  UNL1        0.0361
     15 H           0.0039    0.8649   -2.1314 H       1  UNL1        0.0361
     16 H          -1.3923    2.1566   -0.5494 H       1  UNL1        0.0620
     17 H           1.3861   -2.1536   -0.5514 H       1  UNL1        0.0620
     18 H          -1.3929   -2.1567   -0.5501 H       1  UNL1        0.0620
     19 H           1.3867    2.1539   -0.5520 H       1  UNL1        0.0620
     20 H          -3.4615    2.1486    0.7965 H       1  UNL1        0.0618
     21 H           3.4584   -2.1486    0.7962 H       1  UNL1        0.0618
     22 H          -3.4622   -2.1483    0.7958 H       1  UNL1        0.0618
     23 H           3.4593    2.1484    0.7955 H       1  UNL1        0.0618
     24 H          -4.5017    0.0002    1.4722 H       1  UNL1        0.0618
     25 H           4.4988   -0.0003    1.4717 H       1  UNL1        0.0618
@<TRIPOS>BOND
     1     1     2    1
     2     1     3    1
     3     1    14    1
     4     1    15    1
     5     2     4   ar
     6     2     6   ar
     7     3     5   ar
     8     3     7   ar
     9     4     8   ar
    10     4    16    1
    11     5     9   ar
    12     5    17    1
    13     6    10   ar
    14     6    18    1
    15     7    11   ar
    16     7    19    1
    17     8    12   ar
    18     8    20    1
    19     9    13   ar
    20     9    21    1
    21    10    12   ar
    22    10    22    1
    23    11    13   ar
    24    11    23    1
    25    12    24    1
    26    13    25    1
