@<TRIPOS>MOLECULE
6853
 23 25 0 0 0
SMALL
GASTEIGER

@<TRIPOS>ATOM
      1 C           0.0000    1.8432    0.0003 C.3     1  UNL1       -0.0013
      2 C           1.1749    0.8877   -0.0006 C.ar    1  UNL1       -0.0353
      3 C          -1.1749    0.8876   -0.0003 C.ar    1  UNL1       -0.0353
      4 C           0.7236   -0.4513   -0.0008 C.ar    1  UNL1       -0.0141
      5 C          -0.7236   -0.4513   -0.0006 C.ar    1  UNL1       -0.0141
      6 C           2.5239    1.1959    0.0000 C.ar    1  UNL1       -0.0577
      7 C          -2.5239    1.1959    0.0001 C.ar    1  UNL1       -0.0577
      8 C           1.6292   -1.4991   -0.0002 C.ar    1  UNL1       -0.0538
      9 C          -1.6292   -1.4990   -0.0004 C.ar    1  UNL1       -0.0538
     10 C           3.4367    0.1396    0.0007 C.ar    1  UNL1       -0.0615
     11 C          -3.4367    0.1395    0.0005 C.ar    1  UNL1       -0.0615
     12 C           2.9938   -1.1945    0.0007 C.ar    1  UNL1       -0.0612
     13 C          -2.9939   -1.1944    0.0007 C.ar    1  UNL1       -0.0612
     14 H           0.0001    2.4566    0.9060 H       1  UNL1        0.0362
     15 H          -0.0001    2.4581   -0.9044 H       1  UNL1        0.0362
     16 H           2.8670    2.2245    0.0004 H       1  UNL1        0.0621
     17 H          -2.8670    2.2245    0.0004 H       1  UNL1        0.0621
     18 H           1.3027   -2.5337   -0.0001 H       1  UNL1        0.0624
     19 H          -1.3027   -2.5336   -0.0005 H       1  UNL1        0.0624
     20 H           4.5031    0.3493    0.0014 H       1  UNL1        0.0618
     21 H          -4.5031    0.3493    0.0010 H       1  UNL1        0.0618
     22 H           3.7239   -1.9998    0.0013 H       1  UNL1        0.0618
     23 H          -3.7239   -1.9997    0.0011 H       1  UNL1        0.0618
@<TRIPOS>BOND
     1     1     2    1
     2     1     3    1
     3     1    14    1
     4     1    15    1
     5     2     4   ar
     6     2     6   ar
     7     3     5   ar
     8     3     7   ar
     9     4     5    1
    10     4     8   ar
    11     5     9   ar
    12     6    10   ar
    13     6    16    1
    14     7    11   ar
    15     7    17    1
    16     8    12   ar
    17     8    18    1
    18     9    13   ar
    19     9    19    1
    20    10    12   ar
    21    10    20    1
    22    11    13   ar
    23    11    21    1
    24    12    22    1
    25    13    23    1
