@<TRIPOS>MOLECULE
10326
 19 20 0 0 0
SMALL
GASTEIGER

@<TRIPOS>ATOM
      1 C          -2.4508    0.0000   -0.2738 C.3     1  UNL1       -0.0451
      2 C          -1.6324   -1.2328    0.1386 C.3     1  UNL1       -0.0271
      3 C          -1.6324    1.2328    0.1385 C.3     1  UNL1       -0.0271
      4 C          -0.2377   -0.7000    0.0424 C.ar    1  UNL1       -0.0442
      5 C          -0.2378    0.6999    0.0424 C.ar    1  UNL1       -0.0442
      6 C           0.9477   -1.4143    0.0040 C.ar    1  UNL1       -0.0583
      7 C           0.9476    1.4142    0.0039 C.ar    1  UNL1       -0.0583
      8 C           2.1479   -0.7020   -0.0481 C.ar    1  UNL1       -0.0615
      9 C           2.1478    0.7021   -0.0478 C.ar    1  UNL1       -0.0615
     10 H          -2.5736   -0.0001   -1.3660 H       1  UNL1        0.0272
     11 H          -3.4547    0.0000    0.1622 H       1  UNL1        0.0272
     12 H          -1.8083   -2.0732   -0.5386 H       1  UNL1        0.0313
     13 H          -1.8530   -1.5274    1.1697 H       1  UNL1        0.0313
     14 H          -1.8532    1.5275    1.1695 H       1  UNL1        0.0313
     15 H          -1.8083    2.0731   -0.5388 H       1  UNL1        0.0313
     16 H           0.9506   -2.4989    0.0153 H       1  UNL1        0.0620
     17 H           0.9505    2.4988    0.0153 H       1  UNL1        0.0620
     18 H           3.0924   -1.2383   -0.0827 H       1  UNL1        0.0618
     19 H           3.0922    1.2386   -0.0823 H       1  UNL1        0.0618
@<TRIPOS>BOND
     1     1     2    1
     2     1     3    1
     3     1    10    1
     4     1    11    1
     5     2     4    1
     6     2    12    1
     7     2    13    1
     8     3     5    1
     9     3    14    1
    10     3    15    1
    11     4     5   ar
    12     4     6   ar
    13     5     7   ar
    14     6     8   ar
    15     6    16    1
    16     7     9   ar
    17     7    17    1
    18     8     9   ar
    19     8    18    1
    20     9    19    1
