@<TRIPOS>MOLECULE
7115
 32 34 0 0 0
SMALL
GASTEIGER

@<TRIPOS>ATOM
      1 C          -1.3948   -0.0010    0.0005 C.ar    1  UNL1       -0.0178
      2 C           1.3950   -0.0006    0.0000 C.ar    1  UNL1       -0.0178
      3 C          -2.8418   -0.0005    0.0004 C.ar    1  UNL1       -0.0179
      4 C           2.8418    0.0001    0.0001 C.ar    1  UNL1       -0.0179
      5 C          -0.6978   -0.0014   -1.2076 C.ar    1  UNL1       -0.0535
      6 C           0.6971   -0.0013   -1.2078 C.ar    1  UNL1       -0.0535
      7 C          -0.6972   -0.0004    1.2083 C.ar    1  UNL1       -0.0535
      8 C           0.6977   -0.0002    1.2082 C.ar    1  UNL1       -0.0535
      9 C          -3.5387    1.2080   -0.0003 C.ar    1  UNL1       -0.0540
     10 C           3.5397   -1.2078    0.0000 C.ar    1  UNL1       -0.0540
     11 C          -3.5399   -1.2081    0.0006 C.ar    1  UNL1       -0.0540
     12 C           3.5390    1.2083   -0.0002 C.ar    1  UNL1       -0.0540
     13 C          -4.9335    1.2088   -0.0007 C.ar    1  UNL1       -0.0612
     14 C           4.9346   -1.2074   -0.0001 C.ar    1  UNL1       -0.0612
     15 C          -4.9349   -1.2071    0.0000 C.ar    1  UNL1       -0.0612
     16 C           4.9339    1.2086   -0.0004 C.ar    1  UNL1       -0.0612
     17 C          -5.6316    0.0013   -0.0006 C.ar    1  UNL1       -0.0617
     18 C           5.6316    0.0006   -0.0004 C.ar    1  UNL1       -0.0617
     19 H          -1.2261   -0.0017   -2.1580 H       1  UNL1        0.0624
     20 H           1.2250   -0.0016   -2.1586 H       1  UNL1        0.0624
     21 H          -1.2253    0.0001    2.1591 H       1  UNL1        0.0624
     22 H           1.2261    0.0004    2.1587 H       1  UNL1        0.0624
     23 H          -3.0101    2.1584   -0.0006 H       1  UNL1        0.0624
     24 H           3.0119   -2.1586    0.0001 H       1  UNL1        0.0624
     25 H          -3.0125   -2.1591    0.0010 H       1  UNL1        0.0624
     26 H           3.0108    2.1589   -0.0002 H       1  UNL1        0.0624
     27 H          -5.4762    2.1496   -0.0013 H       1  UNL1        0.0618
     28 H           5.4780   -2.1477   -0.0001 H       1  UNL1        0.0618
     29 H          -5.4787   -2.1473    0.0001 H       1  UNL1        0.0618
     30 H           5.4769    2.1491   -0.0006 H       1  UNL1        0.0618
     31 H          -6.7176    0.0019   -0.0009 H       1  UNL1        0.0618
     32 H           6.7176    0.0009   -0.0005 H       1  UNL1        0.0618
@<TRIPOS>BOND
     1     1     3    1
     2     1     5   ar
     3     1     7   ar
     4     2     4    1
     5     2     6   ar
     6     2     8   ar
     7     3     9   ar
     8     3    11   ar
     9     4    10   ar
    10     4    12   ar
    11     5     6   ar
    12     5    19    1
    13     6    20    1
    14     7     8   ar
    15     7    21    1
    16     8    22    1
    17     9    13   ar
    18     9    23    1
    19    10    14   ar
    20    10    24    1
    21    11    15   ar
    22    11    25    1
    23    12    16   ar
    24    12    26    1
    25    13    17   ar
    26    13    27    1
    27    14    18   ar
    28    14    28    1
    29    15    17   ar
    30    15    29    1
    31    16    18   ar
    32    16    30    1
    33    17    31    1
    34    18    32    1
