@<TRIPOS>MOLECULE
9149
 23 25 0 0 0
SMALL
GASTEIGER

@<TRIPOS>ATOM
      1 C           0.0113   -0.0028    0.0000 C.ar    1  UNL1       -0.0073
      2 C          -0.3169   -1.3759    0.0000 C.ar    1  UNL1       -0.0354
      3 C          -0.9942    0.9878    0.0001 C.ar    1  UNL1       -0.0173
      4 C          -1.7620   -1.8231   -0.0005 C.3     1  UNL1       -0.0086
      5 C           1.3725    0.3869    0.0000 C.ar    1  UNL1       -0.0171
      6 C          -2.4090    0.5977    0.0003 C.2     1  UNL1       -0.0576
      7 C          -2.7554   -0.6965    0.0000 C.2     1  UNL1       -0.0791
      8 C           0.6991   -2.3402    0.0001 C.ar    1  UNL1       -0.0577
      9 C          -0.6451    2.3434    0.0001 C.ar    1  UNL1       -0.0540
     10 C           2.3713   -0.5990    0.0001 C.ar    1  UNL1       -0.0540
     11 C           1.6972    1.7521   -0.0002 C.ar    1  UNL1       -0.0540
     12 C           2.0359   -1.9523    0.0002 C.ar    1  UNL1       -0.0609
     13 C           0.6953    2.7218   -0.0001 C.ar    1  UNL1       -0.0606
     14 H          -1.9401   -2.4406   -0.8889 H       1  UNL1        0.0356
     15 H          -1.9404   -2.4416    0.8873 H       1  UNL1        0.0356
     16 H          -3.1672    1.3731    0.0007 H       1  UNL1        0.0621
     17 H          -3.8092   -0.9607    0.0001 H       1  UNL1        0.0575
     18 H           0.4508   -3.3985    0.0001 H       1  UNL1        0.0621
     19 H          -1.4105    3.1159    0.0002 H       1  UNL1        0.0624
     20 H           3.4232   -0.3205    0.0001 H       1  UNL1        0.0624
     21 H           2.7367    2.0735   -0.0003 H       1  UNL1        0.0624
     22 H           2.8193   -2.7048    0.0003 H       1  UNL1        0.0618
     23 H           0.9612    3.7751   -0.0001 H       1  UNL1        0.0618
@<TRIPOS>BOND
     1     1     2   ar
     2     1     3   ar
     3     1     5   ar
     4     2     4    1
     5     2     8   ar
     6     3     6    1
     7     3     9   ar
     8     4     7    1
     9     4    14    1
    10     4    15    1
    11     5    10   ar
    12     5    11   ar
    13     6     7    2
    14     6    16    1
    15     7    17    1
    16     8    12   ar
    17     8    18    1
    18     9    13   ar
    19     9    19    1
    20    10    12   ar
    21    10    20    1
    22    11    13   ar
    23    11    21    1
    24    12    22    1
    25    13    23    1
