@<TRIPOS>MOLECULE
31423
 26 29 0 0 0
SMALL
GASTEIGER

@<TRIPOS>ATOM
      1 C           0.7085    0.0000    0.0000 C.ar    1  UNL1       -0.0025
      2 C          -0.7085    0.0000    0.0000 C.ar    1  UNL1       -0.0025
      3 C           1.4154    1.2251    0.0000 C.ar    1  UNL1       -0.0167
      4 C          -1.4154    1.2250    0.0000 C.ar    1  UNL1       -0.0167
      5 C           1.4154   -1.2250    0.0000 C.ar    1  UNL1       -0.0167
      6 C          -1.4154   -1.2251    0.0000 C.ar    1  UNL1       -0.0167
      7 C           0.6981    2.4290    0.0000 C.ar    1  UNL1       -0.0534
      8 C          -0.6982    2.4290    0.0000 C.ar    1  UNL1       -0.0534
      9 C           0.6982   -2.4290    0.0000 C.ar    1  UNL1       -0.0534
     10 C          -0.6981   -2.4290    0.0000 C.ar    1  UNL1       -0.0534
     11 C           2.8178    1.2084   -0.0001 C.ar    1  UNL1       -0.0540
     12 C          -2.8178    1.2083    0.0000 C.ar    1  UNL1       -0.0540
     13 C           2.8178   -1.2083    0.0000 C.ar    1  UNL1       -0.0540
     14 C          -2.8178   -1.2084    0.0000 C.ar    1  UNL1       -0.0540
     15 C           3.5126    0.0000    0.0000 C.ar    1  UNL1       -0.0606
     16 C          -3.5126    0.0000    0.0000 C.ar    1  UNL1       -0.0606
     17 H           1.2203    3.3836    0.0000 H       1  UNL1        0.0624
     18 H          -1.2205    3.3836    0.0000 H       1  UNL1        0.0624
     19 H           1.2205   -3.3836    0.0000 H       1  UNL1        0.0624
     20 H          -1.2203   -3.3836    0.0000 H       1  UNL1        0.0624
     21 H           3.3827    2.1382   -0.0001 H       1  UNL1        0.0624
     22 H          -3.3829    2.1380    0.0001 H       1  UNL1        0.0624
     23 H           3.3828   -2.1380    0.0001 H       1  UNL1        0.0624
     24 H          -3.3827   -2.1382   -0.0001 H       1  UNL1        0.0624
     25 H           4.5989    0.0001    0.0000 H       1  UNL1        0.0618
     26 H          -4.5989    0.0000    0.0000 H       1  UNL1        0.0618
@<TRIPOS>BOND
     1     1     2   ar
     2     1     3   ar
     3     1     5   ar
     4     2     4   ar
     5     2     6   ar
     6     3     7   ar
     7     3    11   ar
     8     4     8   ar
     9     4    12   ar
    10     5     9   ar
    11     5    13   ar
    12     6    10   ar
    13     6    14   ar
    14     7     8   ar
    15     7    17    1
    16     8    18    1
    17     9    10   ar
    18     9    19    1
    19    10    20    1
    20    11    15   ar
    21    11    21    1
    22    12    16   ar
    23    12    22    1
    24    13    15   ar
    25    13    23    1
    26    14    16   ar
    27    14    24    1
    28    15    25    1
    29    16    26    1
