@<TRIPOS>MOLECULE
11502
 26 27 0 0 0
SMALL
GASTEIGER

@<TRIPOS>ATOM
      1 C          -1.9046    0.2274    0.0084 C.ar    1  UNL1       -0.0250
      2 C           1.8890   -0.2438    0.0082 C.ar    1  UNL1       -0.0250
      3 C          -0.4700    0.4677    0.0208 C.2     1  UNL1       -0.0540
      4 C           0.4786   -0.4998    0.0210 C.2     1  UNL1       -0.0540
      5 C          -2.4017   -1.0044   -0.4172 C.ar    1  UNL1       -0.0546
      6 C           2.3900    0.9982   -0.4187 C.ar    1  UNL1       -0.0546
      7 C          -2.7830    1.2284    0.4227 C.ar    1  UNL1       -0.0546
      8 C           2.8020   -1.2288    0.4225 C.ar    1  UNL1       -0.0546
      9 C          -3.7773   -1.2352   -0.4286 C.ar    1  UNL1       -0.0612
     10 C           3.7624    1.2476   -0.4308 C.ar    1  UNL1       -0.0612
     11 C          -4.1587    0.9977    0.4115 C.ar    1  UNL1       -0.0612
     12 C           4.1744   -0.9795    0.4105 C.ar    1  UNL1       -0.0612
     13 C          -4.6558   -0.2341   -0.0142 C.ar    1  UNL1       -0.0617
     14 C           4.6545    0.2588   -0.0162 C.ar    1  UNL1       -0.0617
     15 H          -0.1948    1.5184    0.0497 H       1  UNL1        0.0624
     16 H           0.2017   -1.5496    0.0477 H       1  UNL1        0.0624
     17 H          -1.7601   -1.8062   -0.7705 H       1  UNL1        0.0623
     18 H           1.7421    1.7939   -0.7756 H       1  UNL1        0.0623
     19 H          -2.4148    2.1946    0.7592 H       1  UNL1        0.0623
     20 H           2.4502   -2.2013    0.7606 H       1  UNL1        0.0623
     21 H          -4.1654   -2.1923   -0.7650 H       1  UNL1        0.0618
     22 H           4.1374    2.2094   -0.7684 H       1  UNL1        0.0618
     23 H          -4.8429    1.7770    0.7341 H       1  UNL1        0.0618
     24 H           4.8693   -1.7492    0.7332 H       1  UNL1        0.0618
     25 H          -5.7269   -0.4133   -0.0243 H       1  UNL1        0.0618
     26 H           5.7231    0.4524   -0.0269 H       1  UNL1        0.0618
@<TRIPOS>BOND
     1     1     3    1
     2     1     5   ar
     3     1     7   ar
     4     2     4    1
     5     2     6   ar
     6     2     8   ar
     7     3     4    2
     8     3    15    1
     9     4    16    1
    10     5     9   ar
    11     5    17    1
    12     6    10   ar
    13     6    18    1
    14     7    11   ar
    15     7    19    1
    16     8    12   ar
    17     8    20    1
    18     9    13   ar
    19     9    21    1
    20    10    14   ar
    21    10    22    1
    22    11    13   ar
    23    11    23    1
    24    12    14   ar
    25    12    24    1
    26    13    25    1
    27    14    26    1
