@<TRIPOS>MOLECULE
8404
 22 23 0 0 0
SMALL
GASTEIGER

@<TRIPOS>ATOM
      1 C          -2.4812   -0.6809    0.3414 C.3     1  UNL1       -0.0488
      2 C          -2.4812    0.6809   -0.3412 C.3     1  UNL1       -0.0488
      3 C          -1.2568   -1.4903   -0.0824 C.3     1  UNL1       -0.0274
      4 C          -1.2569    1.4903    0.0821 C.3     1  UNL1       -0.0274
      5 C           0.0284   -0.7034   -0.0185 C.ar    1  UNL1       -0.0442
      6 C           0.0285    0.7034    0.0185 C.ar    1  UNL1       -0.0442
      7 C           1.2508   -1.3913   -0.0551 C.ar    1  UNL1       -0.0583
      8 C           1.2508    1.3913    0.0553 C.ar    1  UNL1       -0.0583
      9 C           2.4588   -0.6952   -0.0288 C.ar    1  UNL1       -0.0615
     10 C           2.4588    0.6953    0.0288 C.ar    1  UNL1       -0.0615
     11 H          -3.3929   -1.2323    0.0860 H       1  UNL1        0.0268
     12 H          -2.4812   -0.5458    1.4305 H       1  UNL1        0.0268
     13 H          -3.3930    1.2324   -0.0856 H       1  UNL1        0.0268
     14 H          -2.4816    0.5457   -1.4303 H       1  UNL1        0.0268
     15 H          -1.3917   -1.8368   -1.1147 H       1  UNL1        0.0313
     16 H          -1.1834   -2.3777    0.5577 H       1  UNL1        0.0313
     17 H          -1.3917    1.8372    1.1143 H       1  UNL1        0.0313
     18 H          -1.1835    2.3775   -0.5584 H       1  UNL1        0.0313
     19 H           1.2665   -2.4775   -0.1043 H       1  UNL1        0.0620
     20 H           1.2663    2.4775    0.1044 H       1  UNL1        0.0620
     21 H           3.3990   -1.2384   -0.0534 H       1  UNL1        0.0618
     22 H           3.3990    1.2384    0.0534 H       1  UNL1        0.0618
@<TRIPOS>BOND
     1     1     2    1
     2     1     3    1
     3     1    11    1
     4     1    12    1
     5     2     4    1
     6     2    13    1
     7     2    14    1
     8     3     5    1
     9     3    15    1
    10     3    16    1
    11     4     6    1
    12     4    17    1
    13     4    18    1
    14     5     6   ar
    15     5     7   ar
    16     6     8   ar
    17     7     9   ar
    18     7    19    1
    19     8    10   ar
    20     8    20    1
    21     9    10   ar
    22     9    21    1
    23    10    22    1
