@<TRIPOS>MOLECULE
10614
 35 37 0 0 0
SMALL
GASTEIGER

@<TRIPOS>ATOM
      1 C           0.0318   -0.0033    0.6524 C.3     1  UNL1        0.0342
      2 C           1.4788   -0.0863    0.3001 C.ar    1  UNL1       -0.0356
      3 C          -0.8165   -1.2402    0.2804 C.ar    1  UNL1       -0.0356
      4 C          -0.6681    1.3250    0.2859 C.ar    1  UNL1       -0.0356
      5 C           2.4369    0.4615    1.1531 C.ar    1  UNL1       -0.0577
      6 C          -0.8472   -2.2881    1.1604 C.ar    1  UNL1       -0.0577
      7 C          -1.6407    1.7935    1.1274 C.ar    1  UNL1       -0.0577
      8 C           1.8740   -0.7112   -0.8827 C.ar    1  UNL1       -0.0577
      9 C          -1.4924   -1.2229   -0.9098 C.ar    1  UNL1       -0.0577
     10 C          -0.2789    1.9626   -0.8609 C.ar    1  UNL1       -0.0577
     11 C           3.7901    0.3842    0.8235 C.ar    1  UNL1       -0.0615
     12 C          -1.6125   -3.4048    0.8243 C.ar    1  UNL1       -0.0615
     13 C          -2.2729    2.9920    0.7965 C.ar    1  UNL1       -0.0615
     14 C           3.2270   -0.7886   -1.2123 C.ar    1  UNL1       -0.0615
     15 C          -2.2579   -2.3394   -1.2457 C.ar    1  UNL1       -0.0615
     16 C          -0.9108    3.1613   -1.1917 C.ar    1  UNL1       -0.0615
     17 C           4.1851   -0.2407   -0.3592 C.ar    1  UNL1       -0.0617
     18 C          -2.3179   -3.4305   -0.3787 C.ar    1  UNL1       -0.0617
     19 C          -1.9078    3.6760   -0.3630 C.ar    1  UNL1       -0.0617
     20 H           0.0209   -0.0013    1.7563 H       1  UNL1        0.0446
     21 H           2.1453    0.9544    2.0768 H       1  UNL1        0.0621
     22 H          -0.2984   -2.2762    2.0964 H       1  UNL1        0.0621
     23 H          -1.9312    1.2654    2.0297 H       1  UNL1        0.0621
     24 H           1.1605   -1.1365   -1.5805 H       1  UNL1        0.0621
     25 H          -1.4520   -0.4012   -1.6145 H       1  UNL1        0.0621
     26 H           0.4804    1.5831   -1.5337 H       1  UNL1        0.0621
     27 H           4.5361    0.8116    1.4872 H       1  UNL1        0.0618
     28 H          -1.6584   -4.2548    1.4989 H       1  UNL1        0.0618
     29 H          -3.0499    3.3923    1.4412 H       1  UNL1        0.0618
     30 H           3.5349   -1.2720   -2.1349 H       1  UNL1        0.0618
     31 H          -2.8036   -2.3618   -2.1846 H       1  UNL1        0.0618
     32 H          -0.6294    3.6924   -2.0964 H       1  UNL1        0.0618
     33 H           5.2386   -0.2998   -0.6165 H       1  UNL1        0.0618
     34 H          -2.9127   -4.3005   -0.6410 H       1  UNL1        0.0618
     35 H          -2.4008    4.6087   -0.6212 H       1  UNL1        0.0618
@<TRIPOS>BOND
     1     1     2    1
     2     1     3    1
     3     1     4    1
     4     1    20    1
     5     2     5   ar
     6     2     8   ar
     7     3     6   ar
     8     3     9   ar
     9     4     7   ar
    10     4    10   ar
    11     5    11   ar
    12     5    21    1
    13     6    12   ar
    14     6    22    1
    15     7    13   ar
    16     7    23    1
    17     8    14   ar
    18     8    24    1
    19     9    15   ar
    20     9    25    1
    21    10    16   ar
    22    10    26    1
    23    11    17   ar
    24    11    27    1
    25    12    18   ar
    26    12    28    1
    27    13    19   ar
    28    13    29    1
    29    14    17   ar
    30    14    30    1
    31    15    18   ar
    32    15    31    1
    33    16    19   ar
    34    16    32    1
    35    17    33    1
    36    18    34    1
    37    19    35    1
