@<TRIPOS>MOLECULE
1_3_bisphosphoglycerate
 23 22 0 0 0
SMALL
GASTEIGER

@<TRIPOS>ATOM
      1 P          -2.9476    0.7857   -0.2264 P.3     1  UNL1        0.4725
      2 P           2.8911    0.7606    0.0577 P.3     1  UNL1        0.5300
      3 O          -1.7351   -0.2838   -0.2702 O.3     1  UNL1       -0.2836
      4 O          -0.6060   -2.8111   -0.0639 O.3     1  UNL1       -0.3785
      5 O           1.6543   -0.1283    0.5971 O.3     1  UNL1       -0.3694
      6 O           1.3762   -1.4622   -1.2394 O.2     1  UNL1       -0.2474
      7 O          -2.3800    1.9724    0.7142 O.3     1  UNL1       -0.3026
      8 O          -4.0380    0.0530    0.7167 O.3     1  UNL1       -0.3026
      9 O           2.2407    1.6028   -1.1604 O.3     1  UNL1       -0.2930
     10 O           3.0928    1.8842    1.2038 O.3     1  UNL1       -0.2930
     11 O          -3.4602    1.2201   -1.5684 O.2     1  UNL1       -0.2275
     12 O           4.1337    0.0018   -0.3052 O.2     1  UNL1       -0.2155
     13 C          -0.0726   -1.7368    0.6974 C.3     1  UNL1        0.1758
     14 C          -1.1955   -0.7435    0.9608 C.3     1  UNL1        0.0954
     15 C           1.0462   -1.1149   -0.1137 C.2     1  UNL1        0.3459
     16 H           0.3323   -2.1398    1.6311 H       1  UNL1        0.0734
     17 H          -0.8295    0.1090    1.5413 H       1  UNL1        0.0597
     18 H          -1.9922   -1.2399    1.5244 H       1  UNL1        0.0597
     19 H           0.0867   -3.4898   -0.1380 H       1  UNL1        0.2106
     20 H          -2.9230    2.7796    0.8392 H       1  UNL1        0.2220
     21 H          -4.9209    0.4650    0.8297 H       1  UNL1        0.2220
     22 H           2.1138    1.1621   -2.0276 H       1  UNL1        0.2231
     23 H           3.5623    1.6403    2.0298 H       1  UNL1        0.2231
@<TRIPOS>BOND
     1     1     3    1
     2     1     7    1
     3     1     8    1
     4     1    11    2
     5     2     5    1
     6     2     9    1
     7     2    10    1
     8     2    12    2
     9     3    14    1
    10     4    13    1
    11     4    19    1
    12     5    15    1
    13     6    15    2
    14     7    20    1
    15     8    21    1
    16     9    22    1
    17    10    23    1
    18    13    14    1
    19    13    15    1
    20    13    16    1
    21    14    17    1
    22    14    18    1
