@<TRIPOS>MOLECULE
2_phosphoglycerate
 18 17 0 0 0
SMALL
GASTEIGER

@<TRIPOS>ATOM
      1 P           1.7296   -0.0495    0.0509 P.3     1  UNL1        0.4732
      2 O           0.3534   -0.8989    0.0208 O.3     1  UNL1       -0.2697
      3 O          -2.2886   -1.6415    0.7215 O.3     1  UNL1       -0.3919
      4 O           2.1866   -0.0024   -1.4996 O.3     1  UNL1       -0.3026
      5 O           2.7768   -1.0869    0.7159 O.3     1  UNL1       -0.3026
      6 O          -1.5710    1.8891   -0.8274 O.3     1  UNL1       -0.4788
      7 O           1.6382    1.2838    0.7337 O.2     1  UNL1       -0.2275
      8 O          -0.9977    1.1951    1.2616 O.2     1  UNL1       -0.2480
      9 C          -0.7769   -0.3305   -0.6244 C.3     1  UNL1        0.1889
     10 C          -1.9268   -1.3291   -0.6192 C.3     1  UNL1        0.0814
     11 C          -1.1236    0.9709    0.0661 C.2     1  UNL1        0.3368
     12 H          -0.4924   -0.1167   -1.6611 H       1  UNL1        0.0742
     13 H          -2.8051   -0.9179   -1.1264 H       1  UNL1        0.0589
     14 H          -1.6252   -2.2611   -1.1076 H       1  UNL1        0.0589
     15 H          -3.0204   -2.2804    0.6775 H       1  UNL1        0.2095
     16 H           2.9756    0.5258   -1.7459 H       1  UNL1        0.2220
     17 H           3.6812   -0.7750    0.9322 H       1  UNL1        0.2220
     18 H          -1.7866    2.7438   -0.3968 H       1  UNL1        0.2951
@<TRIPOS>BOND
     1     1     2    1
     2     1     4    1
     3     1     5    1
     4     1     7    2
     5     2     9    1
     6     3    10    1
     7     3    15    1
     8     4    16    1
     9     5    17    1
    10     6    11    1
    11     6    18    1
    12     8    11    2
    13     9    10    1
    14     9    11    1
    15     9    12    1
    16    10    13    1
    17    10    14    1
