@<TRIPOS>MOLECULE
3_phosphoglycerate
 18 17 0 0 0
SMALL
GASTEIGER

@<TRIPOS>ATOM
      1 P          -2.1755   -0.1438    0.2187 P.3     1  UNL1        0.4725
      2 O          -0.5943    0.1773    0.3092 O.3     1  UNL1       -0.2836
      3 O           1.6823    1.8632    0.2321 O.3     1  UNL1       -0.3785
      4 O          -2.2628   -1.3519   -0.8527 O.3     1  UNL1       -0.3026
      5 O          -2.7497    1.1247   -0.6034 O.3     1  UNL1       -0.3026
      6 O           2.2445   -1.5571   -0.6738 O.3     1  UNL1       -0.4788
      7 O          -2.8484   -0.4035    1.5348 O.2     1  UNL1       -0.2275
      8 O           2.7503   -0.4100    1.2242 O.2     1  UNL1       -0.2480
      9 C           0.1121    0.4341   -0.8996 C.3     1  UNL1        0.0954
     10 C           1.5778    0.7116   -0.5924 C.3     1  UNL1        0.1752
     11 C           2.2637   -0.4446    0.1030 C.2     1  UNL1        0.3360
     12 H          -0.3306    1.3126   -1.3801 H       1  UNL1        0.0597
     13 H           0.0128   -0.4260   -1.5688 H       1  UNL1        0.0597
     14 H           2.1285    0.9254   -1.5143 H       1  UNL1        0.0734
     15 H           1.1263    1.7188    1.0170 H       1  UNL1        0.2106
     16 H          -3.1339   -1.7661   -1.0309 H       1  UNL1        0.2220
     17 H          -3.7196    1.2173   -0.7165 H       1  UNL1        0.2220
     18 H           2.6726   -2.3204   -0.2307 H       1  UNL1        0.2951
@<TRIPOS>BOND
     1     1     2    1
     2     1     4    1
     3     1     5    1
     4     1     7    2
     5     2     9    1
     6     3    10    1
     7     3    15    1
     8     4    16    1
     9     5    17    1
    10     6    11    1
    11     6    18    1
    12     8    11    2
    13     9    10    1
    14     9    12    1
    15     9    13    1
    16    10    11    1
    17    10    14    1
