@<TRIPOS>MOLECULE
6_phosphogluconate
 30 29 0 0 0
SMALL
GASTEIGER

@<TRIPOS>ATOM
      1 P           3.3804    0.8818    0.1375 P.3     1  UNL1        0.4724
      2 O           0.3496   -1.6093    1.5876 O.3     1  UNL1       -0.3865
      3 O          -2.0839   -0.3258    1.8206 O.3     1  UNL1       -0.3860
      4 O           1.0931   -2.7046   -0.9406 O.3     1  UNL1       -0.3868
      5 O           2.2759   -0.2990    0.1021 O.3     1  UNL1       -0.2841
      6 O          -3.1951   -1.1189   -0.6925 O.3     1  UNL1       -0.3783
      7 O          -2.5169    2.3856   -0.2263 O.3     1  UNL1       -0.4788
      8 O          -4.4545    1.2054   -0.1784 O.2     1  UNL1       -0.2480
      9 O           2.5000    2.2351    0.0440 O.3     1  UNL1       -0.3026
     10 O           4.0614    0.7793   -1.3255 O.3     1  UNL1       -0.3026
     11 O           4.3405    0.8193    1.2893 O.2     1  UNL1       -0.2275
     12 C          -0.4891   -1.4945    0.4425 C.3     1  UNL1        0.1119
     13 C          -1.3508   -0.2212    0.5965 C.3     1  UNL1        0.1197
     14 C           0.3574   -1.4848   -0.8501 C.3     1  UNL1        0.1073
     15 C          -2.3615    0.0218   -0.5405 C.3     1  UNL1        0.1798
     16 C           1.3310   -0.3080   -0.9587 C.3     1  UNL1        0.0875
     17 C          -3.2376    1.2380   -0.3075 C.2     1  UNL1        0.3363
     18 H          -1.1312   -2.3834    0.4572 H       1  UNL1        0.0647
     19 H          -0.7079    0.6574    0.7206 H       1  UNL1        0.0652
     20 H          -0.3076   -1.4705   -1.7194 H       1  UNL1        0.0643
     21 H          -1.8423    0.1766   -1.4923 H       1  UNL1        0.0738
     22 H           0.7916    0.6429   -0.9841 H       1  UNL1        0.0592
     23 H           1.8852   -0.4054   -1.8988 H       1  UNL1        0.0592
     24 H           0.8166   -2.4596    1.5269 H       1  UNL1        0.2100
     25 H          -1.4394   -0.4688    2.5348 H       1  UNL1        0.2100
     26 H           1.8041   -2.6735   -0.2782 H       1  UNL1        0.2100
     27 H          -3.7283   -0.9876   -1.4951 H       1  UNL1        0.2106
     28 H          -3.0885    3.1657   -0.0620 H       1  UNL1        0.2951
     29 H           2.9536    3.1021    0.1134 H       1  UNL1        0.2220
     30 H           4.8398    1.3411   -1.5271 H       1  UNL1        0.2220
@<TRIPOS>BOND
     1     1     5    1
     2     1     9    1
     3     1    10    1
     4     1    11    2
     5     2    12    1
     6     2    24    1
     7     3    13    1
     8     3    25    1
     9     4    14    1
    10     4    26    1
    11     5    16    1
    12     6    15    1
    13     6    27    1
    14     7    17    1
    15     7    28    1
    16     8    17    2
    17     9    29    1
    18    10    30    1
    19    12    13    1
    20    12    14    1
    21    12    18    1
    22    13    15    1
    23    13    19    1
    24    14    16    1
    25    14    20    1
    26    15    17    1
    27    15    21    1
    28    16    22    1
    29    16    23    1
