@<TRIPOS>MOLECULE
acetyl_phosphate
 13 12 0 0 0
SMALL
GASTEIGER

@<TRIPOS>ATOM
      1 P           1.1642    0.0067    0.0783 P.3     1  UNL1        0.5300
      2 O          -0.3176    0.6561    0.0912 O.3     1  UNL1       -0.3716
      3 O           1.3005   -0.6329   -1.4007 O.3     1  UNL1       -0.2930
      4 O           2.1538    1.2850    0.0399 O.3     1  UNL1       -0.2930
      5 O           1.4181   -0.9524    1.2048 O.2     1  UNL1       -0.2155
      6 O          -1.5893   -1.2469   -0.0798 O.2     1  UNL1       -0.2508
      7 C          -1.4863   -0.0320    0.0117 C.2     1  UNL1        0.3116
      8 C          -2.6436    0.9164    0.0546 C.3     1  UNL1        0.0336
      9 H          -2.5899    1.6056   -0.7918 H       1  UNL1        0.0342
     10 H          -3.5777    0.3518   -0.0150 H       1  UNL1        0.0342
     11 H          -2.6381    1.4655    0.9995 H       1  UNL1        0.0342
     12 H           2.0775   -1.1961   -1.6043 H       1  UNL1        0.2231
     13 H           3.1179    1.1422    0.1512 H       1  UNL1        0.2231
@<TRIPOS>BOND
     1     1     2    1
     2     1     3    1
     3     1     4    1
     4     1     5    2
     5     2     7    1
     6     3    12    1
     7     4    13    1
     8     6     7    2
     9     7     8    1
    10     8     9    1
    11     8    10    1
    12     8    11    1
