@<TRIPOS>MOLECULE
acetic_acid
 8 7 0 0 0
SMALL
GASTEIGER

@<TRIPOS>ATOM
      1 O          -0.3035    1.2890   -0.0002 O.3     1  UNL1       -0.4808
      2 O          -0.9800   -0.8878   -0.0002 O.2     1  UNL1       -0.2513
      3 C           1.3743   -0.3516   -0.0002 C.3     1  UNL1        0.0331
      4 C          -0.0907   -0.0496    0.0006 C.2     1  UNL1        0.3016
      5 H           1.8368    0.0570   -0.9021 H       1  UNL1        0.0342
      6 H           1.8400    0.0676    0.8952 H       1  UNL1        0.0342
      7 H           1.5207   -1.4356    0.0064 H       1  UNL1        0.0342
      8 H          -1.2598    1.5081   -0.0008 H       1  UNL1        0.2950
@<TRIPOS>BOND
     1     1     4    1
     2     1     8    1
     3     2     4    2
     4     3     4    1
     5     3     5    1
     6     3     6    1
     7     3     7    1
