@<TRIPOS>MOLECULE
alpha_ketoglutaric_acid
 16 15 0 0 0
SMALL
GASTEIGER

@<TRIPOS>ATOM
      1 O           3.7402   -0.6979    0.0666 O.3     1  UNL1       -0.4806
      2 O          -1.2693   -1.6692   -0.0205 O.2     1  UNL1       -0.2851
      3 O           2.7936    1.3637   -0.0282 O.2     1  UNL1       -0.2510
      4 O          -3.5037   -0.3863    0.0216 O.3     1  UNL1       -0.4751
      5 O          -2.3867    1.6090    0.0221 O.2     1  UNL1       -0.2419
      6 C           0.1517    0.3062   -0.0298 C.3     1  UNL1        0.0271
      7 C           1.3699   -0.6143   -0.0356 C.3     1  UNL1        0.0520
      8 C          -1.1592   -0.4522   -0.0114 C.2     1  UNL1        0.2396
      9 C           2.6775    0.1465    0.0018 C.2     1  UNL1        0.3051
     10 C          -2.4140    0.3946    0.0134 C.2     1  UNL1        0.3726
     11 H           0.1833    0.9525    0.8551 H       1  UNL1        0.0353
     12 H           0.1668    0.9439   -0.9210 H       1  UNL1        0.0353
     13 H           1.3614   -1.2357   -0.9383 H       1  UNL1        0.0382
     14 H           1.3362   -1.2740    0.8393 H       1  UNL1        0.0382
     15 H           4.5921   -0.2119    0.0877 H       1  UNL1        0.2951
     16 H          -4.3343    0.1353    0.0369 H       1  UNL1        0.2955
@<TRIPOS>BOND
     1     1     9    1
     2     1    15    1
     3     2     8    2
     4     3     9    2
     5     4    10    1
     6     4    16    1
     7     5    10    2
     8     6     7    1
     9     6     8    1
    10     6    11    1
    11     6    12    1
    12     7     9    1
    13     7    13    1
    14     7    14    1
    15     8    10    1
