@<TRIPOS>MOLECULE
carbamoyl_phosphate
 12 11 0 0 0
SMALL
GASTEIGER

@<TRIPOS>ATOM
      1 P          -1.1451    0.0102   -0.0807 P.3     1  UNL1        0.5310
      2 O           0.3165   -0.6831   -0.1077 O.3     1  UNL1       -0.3566
      3 O          -2.1477   -1.2581   -0.0628 O.3     1  UNL1       -0.2930
      4 O          -1.2608    0.5993    1.4206 O.3     1  UNL1       -0.2930
      5 O          -1.3935    0.9999   -1.1810 O.2     1  UNL1       -0.2155
      6 O           1.5807    1.2099    0.0971 O.2     1  UNL1       -0.2263
      7 N           2.5568   -0.8711   -0.0691 N.am    1  UNL1       -0.2947
      8 C           1.4931   -0.0070   -0.0165 C.2     1  UNL1        0.4053
      9 H          -3.1131   -1.1011   -0.1381 H       1  UNL1        0.2231
     10 H          -2.0455    1.1369    1.6603 H       1  UNL1        0.2231
     11 H           3.5129   -0.5363   -0.0146 H       1  UNL1        0.1482
     12 H           2.4206   -1.8718   -0.1641 H       1  UNL1        0.1482
@<TRIPOS>BOND
     1     1     2    1
     2     1     3    1
     3     1     4    1
     4     1     5    2
     5     2     8    1
     6     3     9    1
     7     4    10    1
     8     6     8    2
     9     7     8   am
    10     7    11    1
    11     7    12    1
