@<TRIPOS>MOLECULE
cis_aconitic_acid
 18 17 0 0 0
SMALL
GASTEIGER

@<TRIPOS>ATOM
      1 O          -3.7686   -0.5305   -0.3400 O.3     1  UNL1       -0.4804
      2 O           0.9156    2.0697   -0.9884 O.3     1  UNL1       -0.4773
      3 O          -2.2095   -0.6509    1.3055 O.2     1  UNL1       -0.2506
      4 O           0.3579    1.7568    1.1923 O.2     1  UNL1       -0.2455
      5 O           2.8008   -2.0063   -0.0897 O.3     1  UNL1       -0.4775
      6 O           2.7057    0.1927    0.4936 O.2     1  UNL1       -0.2458
      7 C          -1.5327   -0.0263   -0.9563 C.3     1  UNL1        0.0768
      8 C          -0.1196    0.0428   -0.4415 C.2     1  UNL1        0.0537
      9 C           0.7778   -0.9592   -0.4094 C.2     1  UNL1        0.0328
     10 C          -2.4995   -0.4317    0.1375 C.2     1  UNL1        0.3093
     11 C           0.3970    1.3565    0.0389 C.2     1  UNL1        0.3335
     12 C           2.1753   -0.8136    0.0576 C.2     1  UNL1        0.3300
     13 H          -1.8387    0.9466   -1.3558 H       1  UNL1        0.0429
     14 H          -1.5967   -0.7670   -1.7616 H       1  UNL1        0.0429
     15 H           0.4797   -1.9433   -0.7621 H       1  UNL1        0.0694
     16 H          -4.4028   -0.7937    0.3606 H       1  UNL1        0.2951
     17 H           1.2583    2.9406   -0.6945 H       1  UNL1        0.2954
     18 H           3.7370   -1.9681    0.2012 H       1  UNL1        0.2954
@<TRIPOS>BOND
     1     1    10    1
     2     1    16    1
     3     2    11    1
     4     2    17    1
     5     3    10    2
     6     4    11    2
     7     5    12    1
     8     5    18    1
     9     6    12    2
    10     7     8    1
    11     7    10    1
    12     7    13    1
    13     7    14    1
    14     8     9    2
    15     8    11    1
    16     9    12    1
    17     9    15    1
