@<TRIPOS>MOLECULE
citric_acid
 21 20 0 0 0
SMALL
GASTEIGER

@<TRIPOS>ATOM
      1 O           0.0296    0.2095    1.6069 O.3     1  UNL1       -0.3765
      2 O          -0.8558    1.7979   -1.4962 O.3     1  UNL1       -0.4786
      3 O          -1.3554    2.2689    0.6622 O.2     1  UNL1       -0.2477
      4 O          -2.3908   -2.3046   -0.7871 O.3     1  UNL1       -0.4805
      5 O           3.5351   -0.4033   -0.9273 O.3     1  UNL1       -0.4805
      6 O          -2.5559   -0.6265    0.7317 O.2     1  UNL1       -0.2509
      7 O           2.5438   -1.1245    0.9835 O.2     1  UNL1       -0.2509
      8 C           0.1007    0.3620    0.1941 C.3     1  UNL1        0.1820
      9 C          -0.4905   -0.8791   -0.4971 C.3     1  UNL1        0.0845
     10 C           1.5374    0.7096   -0.2266 C.3     1  UNL1        0.0845
     11 C          -0.7650    1.5773   -0.1587 C.2     1  UNL1        0.3379
     12 C          -1.9098   -1.2305   -0.1154 C.2     1  UNL1        0.3080
     13 C           2.5767   -0.3568    0.0300 C.2     1  UNL1        0.3080
     14 H           0.1120   -1.7555   -0.2286 H       1  UNL1        0.0412
     15 H          -0.4574   -0.7614   -1.5866 H       1  UNL1        0.0412
     16 H           1.8842    1.6080    0.3000 H       1  UNL1        0.0412
     17 H           1.5589    0.9361   -1.3004 H       1  UNL1        0.0412
     18 H           0.4620    0.9771    2.0186 H       1  UNL1        0.2109
     19 H          -1.4293    2.5669   -1.7015 H       1  UNL1        0.2951
     20 H          -3.3078   -2.5252   -0.5172 H       1  UNL1        0.2951
     21 H           4.1914   -1.1116   -0.7546 H       1  UNL1        0.2951
@<TRIPOS>BOND
     1     1     8    1
     2     1    18    1
     3     2    11    1
     4     2    19    1
     5     3    11    2
     6     4    12    1
     7     4    20    1
     8     5    13    1
     9     5    21    1
    10     6    12    2
    11     7    13    2
    12     8     9    1
    13     8    10    1
    14     8    11    1
    15     9    12    1
    16     9    14    1
    17     9    15    1
    18    10    13    1
    19    10    16    1
    20    10    17    1
