@<TRIPOS>MOLECULE
creatine
 18 17 0 0 0
SMALL
GASTEIGER

@<TRIPOS>ATOM
      1 O           2.9551   -0.4391   -0.2970 O.3     1  UNL1       -0.4784
      2 O           1.4662    0.0437    1.3508 O.2     1  UNL1       -0.2474
      3 N          -0.5505    0.5168   -0.3703 N.pl3   1  UNL1       -0.2549
      4 N          -2.6825    0.0107    0.5093 N.pl3   1  UNL1       -0.2891
      5 N          -1.3674   -1.7387   -0.2336 N.pl3   1  UNL1       -0.1296
      6 C           0.7512    0.1847   -0.9467 C.3     1  UNL1        0.1635
      7 C          -0.7951    1.9372   -0.1268 C.3     1  UNL1        0.0566
      8 C          -1.5112   -0.4512   -0.0468 C.cat   1  UNL1        0.3788
      9 C           1.7341   -0.0641    0.1611 C.2     1  UNL1        0.3391
     10 H           1.1230    0.9982   -1.5789 H       1  UNL1        0.0775
     11 H           0.6771   -0.7169   -1.5640 H       1  UNL1        0.0775
     12 H           0.0646    2.5550   -0.4092 H       1  UNL1        0.0620
     13 H          -0.9812    2.1203    0.9368 H       1  UNL1        0.0620
     14 H          -1.6514    2.2860   -0.7133 H       1  UNL1        0.0620
     15 H          -2.8698    0.9920    0.6751 H       1  UNL1        0.2547
     16 H          -3.4214   -0.6339    0.7699 H       1  UNL1        0.2547
     17 H          -2.2162   -2.2151    0.0899 H       1  UNL1        0.3062
     18 H           3.5857   -0.6055    0.4359 H       1  UNL1        0.2952
@<TRIPOS>BOND
     1     1     9    1
     2     1    18    1
     3     2     9    2
     4     3     6    1
     5     3     7    1
     6     3     8    1
     7     4     8    1
     8     4    15    1
     9     4    16    1
    10     5     8    2
    11     5    17    1
    12     6     9    1
    13     6    10    1
    14     6    11    1
    15     7    12    1
    16     7    13    1
    17     7    14    1
