@<TRIPOS>MOLECULE
dihydroxyacetone_phosphate
 17 16 0 0 0
SMALL
GASTEIGER

@<TRIPOS>ATOM
      1 P          -2.2396    0.0551    0.0022 P.3     1  UNL1        0.4728
      2 O          -0.6860    0.5196   -0.0001 O.3     1  UNL1       -0.2791
      3 O          -2.3365   -0.9491    1.2661 O.3     1  UNL1       -0.3026
      4 O          -2.3258   -0.9392   -1.2702 O.3     1  UNL1       -0.3026
      5 O           4.0899   -0.1120    0.0028 O.3     1  UNL1       -0.3874
      6 O           1.8569    1.3752    0.0051 O.2     1  UNL1       -0.2925
      7 O          -3.2347    1.1785   -0.0027 O.2     1  UNL1       -0.2275
      8 C           0.3175   -0.4735    0.0042 C.3     1  UNL1        0.1194
      9 C           1.6956    0.1557    0.0012 C.2     1  UNL1        0.1844
     10 C           2.8627   -0.8102   -0.0085 C.3     1  UNL1        0.1046
     11 H           0.2243   -1.0887    0.9036 H       1  UNL1        0.0646
     12 H           0.2239   -1.0966   -0.8898 H       1  UNL1        0.0646
     13 H           2.8167   -1.4149   -0.9180 H       1  UNL1        0.0637
     14 H           2.8123   -1.4599    0.8697 H       1  UNL1        0.0637
     15 H          -3.2129   -1.3091    1.5200 H       1  UNL1        0.2220
     16 H          -3.2013   -1.2891   -1.5407 H       1  UNL1        0.2220
     17 H           4.1520    0.3568    0.8526 H       1  UNL1        0.2100
@<TRIPOS>BOND
     1     1     2    1
     2     1     3    1
     3     1     4    1
     4     1     7    2
     5     2     8    1
     6     3    15    1
     7     4    16    1
     8     5    10    1
     9     5    17    1
    10     6     9    2
    11     8     9    1
    12     8    11    1
    13     8    12    1
    14     9    10    1
    15    10    13    1
    16    10    14    1
