@<TRIPOS>MOLECULE
fructose_1_6_bisphosphate
 33 33 0 0 0
SMALL
GASTEIGER

@<TRIPOS>ATOM
      1 P           4.0496    1.3628    0.0234 P.3     1  UNL1        0.4724
      2 P          -4.2498    1.0361   -0.0641 P.3     1  UNL1        0.4724
      3 O           0.3623   -0.5462    1.1213 O.3     1  UNL1       -0.3635
      4 O           0.3625   -3.6299    0.3724 O.3     1  UNL1       -0.3865
      5 O          -0.6570   -0.8598   -1.7070 O.3     1  UNL1       -0.3865
      6 O           2.9569    0.3290    0.6223 O.3     1  UNL1       -0.2841
      7 O          -3.1205   -0.1050    0.1395 O.3     1  UNL1       -0.2841
      8 O           3.2559    2.1114   -1.1702 O.3     1  UNL1       -0.3026
      9 O           5.0736    0.3899   -0.7639 O.3     1  UNL1       -0.3026
     10 O          -3.5364    2.1134   -1.0367 O.3     1  UNL1       -0.3026
     11 O          -4.2684    1.7843    1.3693 O.3     1  UNL1       -0.3026
     12 O           4.6875    2.2680    1.0363 O.2     1  UNL1       -0.2275
     13 O          -5.5833    0.5323   -0.5336 O.2     1  UNL1       -0.2275
     14 C           0.5694   -2.4180   -0.3504 C.3     1  UNL1        0.1117
     15 C          -0.7614   -1.7334   -0.5900 C.3     1  UNL1        0.1117
     16 C           1.3358   -1.4237    0.5219 C.3     1  UNL1        0.1113
     17 C          -0.9530   -0.9413    0.6978 C.3     1  UNL1        0.1113
     18 C           2.3084   -0.5609   -0.2699 C.3     1  UNL1        0.0878
     19 C          -1.8322    0.2908    0.5818 C.3     1  UNL1        0.0878
     20 H           1.1017   -2.6685   -1.2737 H       1  UNL1        0.0647
     21 H          -1.5925   -2.4245   -0.7630 H       1  UNL1        0.0647
     22 H           1.8653   -1.9177    1.3448 H       1  UNL1        0.0646
     23 H          -1.3529   -1.6101    1.4710 H       1  UNL1        0.0646
     24 H           1.7775    0.0297   -1.0226 H       1  UNL1        0.0592
     25 H           3.0532   -1.1901   -0.7668 H       1  UNL1        0.0592
     26 H          -1.3977    1.0222   -0.1083 H       1  UNL1        0.0592
     27 H          -1.9074    0.7797    1.5592 H       1  UNL1        0.0592
     28 H           1.2374   -4.0177    0.5452 H       1  UNL1        0.2100
     29 H          -0.4818   -1.4084   -2.4905 H       1  UNL1        0.2100
     30 H           3.6987    2.8450   -1.6476 H       1  UNL1        0.2220
     31 H           5.8917    0.7722   -1.1470 H       1  UNL1        0.2220
     32 H          -4.0579    2.8780   -1.3613 H       1  UNL1        0.2220
     33 H          -4.9472    2.4723    1.5368 H       1  UNL1        0.2220
@<TRIPOS>BOND
     1     1     6    1
     2     1     8    1
     3     1     9    1
     4     1    12    2
     5     2     7    1
     6     2    10    1
     7     2    11    1
     8     2    13    2
     9     3    16    1
    10     3    17    1
    11     4    14    1
    12     4    28    1
    13     5    15    1
    14     5    29    1
    15     6    18    1
    16     7    19    1
    17     8    30    1
    18     9    31    1
    19    10    32    1
    20    11    33    1
    21    14    15    1
    22    14    16    1
    23    14    20    1
    24    15    17    1
    25    15    21    1
    26    16    18    1
    27    16    22    1
    28    17    19    1
    29    17    23    1
    30    18    24    1
    31    18    25    1
    32    19    26    1
    33    19    27    1
