@<TRIPOS>MOLECULE
fructose_6_phosphate
 29 29 0 0 0
SMALL
GASTEIGER

@<TRIPOS>ATOM
      1 P           3.4426    0.3002    0.0755 P.3     1  UNL1        0.4724
      2 O          -0.8058    0.4669    0.6737 O.3     1  UNL1       -0.3364
      3 O          -1.5394   -0.4740   -2.1018 O.3     1  UNL1       -0.3837
      4 O          -2.0870   -2.4224    0.8587 O.3     1  UNL1       -0.3864
      5 O          -3.1109    0.2929    1.0894 O.3     1  UNL1       -0.3608
      6 O           1.9448    0.0520    0.6377 O.3     1  UNL1       -0.2841
      7 O          -2.2892    2.8409    0.3627 O.3     1  UNL1       -0.3896
      8 O           3.2046    0.7975   -1.4447 O.3     1  UNL1       -0.3026
      9 O           4.0124   -1.2019   -0.1093 O.3     1  UNL1       -0.3026
     10 O           4.2951    1.2020    0.9196 O.2     1  UNL1       -0.2275
     11 C          -2.1488   -0.7438   -0.8465 C.3     1  UNL1        0.1392
     12 C          -1.2825   -1.7428   -0.1019 C.3     1  UNL1        0.1145
     13 C          -2.1144    0.4737    0.0799 C.3     1  UNL1        0.2205
     14 C          -0.2615   -0.8656    0.6207 C.3     1  UNL1        0.1143
     15 C           1.0759   -0.7884   -0.1021 C.3     1  UNL1        0.0879
     16 C          -2.3361    1.8128   -0.6116 C.3     1  UNL1        0.1006
     17 H          -3.1701   -1.0997   -1.0211 H       1  UNL1        0.0675
     18 H          -0.8100   -2.4968   -0.7395 H       1  UNL1        0.0648
     19 H          -0.1054   -1.1868    1.6570 H       1  UNL1        0.0647
     20 H           0.9509   -0.3624   -1.1021 H       1  UNL1        0.0592
     21 H           1.5165   -1.7862   -0.1893 H       1  UNL1        0.0592
     22 H          -3.3134    1.8548   -1.1027 H       1  UNL1        0.0612
     23 H          -1.5531    2.0251   -1.3455 H       1  UNL1        0.0612
     24 H          -1.5568   -1.2975   -2.6186 H       1  UNL1        0.2101
     25 H          -2.7448   -2.9453    0.3694 H       1  UNL1        0.2100
     26 H          -3.2172   -0.6562    1.2664 H       1  UNL1        0.2129
     27 H          -2.9802    2.6534    1.0207 H       1  UNL1        0.2096
     28 H           3.9778    1.0797   -1.9783 H       1  UNL1        0.2220
     29 H           4.9530   -1.3253   -0.3588 H       1  UNL1        0.2220
@<TRIPOS>BOND
     1     1     6    1
     2     1     8    1
     3     1     9    1
     4     1    10    2
     5     2    13    1
     6     2    14    1
     7     3    11    1
     8     3    24    1
     9     4    12    1
    10     4    25    1
    11     5    13    1
    12     5    26    1
    13     6    15    1
    14     7    16    1
    15     7    27    1
    16     8    28    1
    17     9    29    1
    18    11    12    1
    19    11    13    1
    20    11    17    1
    21    12    14    1
    22    12    18    1
    23    13    16    1
    24    14    15    1
    25    14    19    1
    26    15    20    1
    27    15    21    1
    28    16    22    1
    29    16    23    1
