@<TRIPOS>MOLECULE
fumaric_acid
 12 11 0 0 0
SMALL
GASTEIGER

@<TRIPOS>ATOM
      1 O           1.8166   -0.3326    1.1897 O.3     1  UNL1       -0.4775
      2 O          -2.7358   -0.0859    0.0215 O.3     1  UNL1       -0.4775
      3 O           1.8573   -0.4747   -1.0807 O.2     1  UNL1       -0.2458
      4 O          -0.7986   -1.2906    0.0077 O.2     1  UNL1       -0.2458
      5 C           0.5582    1.2264   -0.0555 C.2     1  UNL1        0.0291
      6 C          -0.7761    1.1186   -0.0301 C.2     1  UNL1        0.0291
      7 C           1.4679    0.0629   -0.0541 C.2     1  UNL1        0.3298
      8 C          -1.3895   -0.2241    0.0014 C.2     1  UNL1        0.3298
      9 H           1.0290    2.2034   -0.0772 H       1  UNL1        0.0691
     10 H          -1.4105    1.9971   -0.0315 H       1  UNL1        0.0691
     11 H           2.4203   -1.1057    1.1745 H       1  UNL1        0.2954
     12 H          -3.1938   -0.9532    0.0425 H       1  UNL1        0.2954
@<TRIPOS>BOND
     1     1     7    1
     2     1    11    1
     3     2     8    1
     4     2    12    1
     5     3     7    2
     6     4     8    2
     7     5     6    2
     8     5     7    1
     9     5     9    1
    10     6     8    1
    11     6    10    1
