@<TRIPOS>MOLECULE
glucose_6_phosphate
 29 28 0 0 0
SMALL
GASTEIGER

@<TRIPOS>ATOM
      1 P          -4.0808   -0.2621   -0.0110 P.3     1  UNL1        0.4724
      2 O           1.1676   -1.1263   -0.4237 O.3     1  UNL1       -0.3865
      3 O           2.1914    1.3395   -1.5328 O.3     1  UNL1       -0.3861
      4 O          -0.4796    1.9421    0.6112 O.3     1  UNL1       -0.3868
      5 O          -2.6781    0.5080   -0.2306 O.3     1  UNL1       -0.2841
      6 O           3.7846    0.2072    1.5502 O.3     1  UNL1       -0.3819
      7 O           4.0879   -1.9826    0.0684 O.2     1  UNL1       -0.2982
      8 O          -4.0323   -0.7178    1.5399 O.3     1  UNL1       -0.3026
      9 O          -3.8537   -1.6478   -0.8130 O.3     1  UNL1       -0.3026
     10 O          -5.3021    0.5110   -0.4148 O.2     1  UNL1       -0.2275
     11 C           1.0713    0.1505    0.2164 C.3     1  UNL1        0.1118
     12 C           2.2954    1.0111   -0.1420 C.3     1  UNL1        0.1159
     13 C          -0.2911    0.7490   -0.1635 C.3     1  UNL1        0.1073
     14 C           3.6775    0.4091    0.1451 C.3     1  UNL1        0.1381
     15 C          -1.4753   -0.1655    0.1309 C.3     1  UNL1        0.0875
     16 C           3.9174   -0.9253   -0.5307 C.2     1  UNL1        0.1512
     17 H           1.0938   -0.0370    1.2968 H       1  UNL1        0.0647
     18 H           2.2152    1.9557    0.4096 H       1  UNL1        0.0650
     19 H          -0.3233    1.0385   -1.2196 H       1  UNL1        0.0643
     20 H           4.4684    1.0934   -0.1807 H       1  UNL1        0.0697
     21 H          -1.5160   -0.4028    1.1991 H       1  UNL1        0.0592
     22 H          -1.3991   -1.0951   -0.4405 H       1  UNL1        0.0592
     23 H           1.0454   -0.9941   -1.3790 H       1  UNL1        0.2100
     24 H           2.2476    0.5176   -2.0472 H       1  UNL1        0.2100
     25 H          -0.4659    1.6940    1.5515 H       1  UNL1        0.2100
     26 H           3.9513   -0.8989   -1.6333 H       1  UNL1        0.1055
     27 H           4.7045   -0.0454    1.7395 H       1  UNL1        0.2105
     28 H          -4.8164   -1.1603    1.9292 H       1  UNL1        0.2220
     29 H          -4.6070   -2.2683   -0.9111 H       1  UNL1        0.2220
@<TRIPOS>BOND
     1     1     5    1
     2     1     8    1
     3     1     9    1
     4     1    10    2
     5     2    11    1
     6     2    23    1
     7     3    12    1
     8     3    24    1
     9     4    13    1
    10     4    25    1
    11     5    15    1
    12     6    14    1
    13     6    27    1
    14     7    16    2
    15     8    28    1
    16     9    29    1
    17    11    12    1
    18    11    13    1
    19    11    17    1
    20    12    14    1
    21    12    18    1
    22    13    15    1
    23    13    19    1
    24    14    16    1
    25    14    20    1
    26    15    21    1
    27    15    22    1
    28    16    26    1
