@<TRIPOS>MOLECULE
glyceraldehyde_3_phosphate
 17 16 0 0 0
SMALL
GASTEIGER

@<TRIPOS>ATOM
      1 P          -1.9459   -0.2069    0.1350 P.3     1  UNL1        0.4725
      2 O          -0.3365   -0.0872    0.2430 O.3     1  UNL1       -0.2838
      3 O           2.0663    1.1687    0.9350 O.3     1  UNL1       -0.3823
      4 O          -2.2005   -0.5812   -1.4175 O.3     1  UNL1       -0.3026
      5 O          -2.4270    1.3341    0.2297 O.3     1  UNL1       -0.3026
      6 O          -2.5822   -1.1319    1.1308 O.2     1  UNL1       -0.2275
      7 O           2.8872   -1.3227    0.3523 O.2     1  UNL1       -0.2982
      8 C           0.3394    0.7697   -0.6662 C.3     1  UNL1        0.0916
      9 C           1.8346    0.7337   -0.3917 C.3     1  UNL1        0.1337
     10 C           2.3647   -0.6762   -0.5504 C.2     1  UNL1        0.1509
     11 H           0.1333    0.4469   -1.6916 H       1  UNL1        0.0596
     12 H          -0.0335    1.7897   -0.5291 H       1  UNL1        0.0596
     13 H           2.3701    1.3921   -1.0827 H       1  UNL1        0.0693
     14 H           2.2668   -1.1054   -1.5627 H       1  UNL1        0.1054
     15 H           3.0289    1.2280    1.0602 H       1  UNL1        0.2104
     16 H          -3.1153   -0.7717   -1.7158 H       1  UNL1        0.2220
     17 H          -3.3869    1.5294    0.2795 H       1  UNL1        0.2220
@<TRIPOS>BOND
     1     1     2    1
     2     1     4    1
     3     1     5    1
     4     1     6    2
     5     2     8    1
     6     3     9    1
     7     3    15    1
     8     4    16    1
     9     5    17    1
    10     7    10    2
    11     8     9    1
    12     8    11    1
    13     8    12    1
    14     9    10    1
    15     9    13    1
    16    10    14    1
