@<TRIPOS>MOLECULE
glyoxylic_acid
 7 6 0 0 0
SMALL
GASTEIGER

@<TRIPOS>ATOM
      1 O          -0.3847    1.3162   -0.0003 O.3     1  UNL1       -0.4753
      2 O          -1.6058   -0.6319   -0.0022 O.2     1  UNL1       -0.2422
      3 O           1.7808    0.0058   -0.0018 O.2     1  UNL1       -0.2888
      4 C          -0.5636   -0.0111    0.0028 C.2     1  UNL1        0.3694
      5 C           0.7733   -0.6790    0.0015 C.2     1  UNL1        0.2264
      6 H           0.7519   -1.7797    0.0034 H       1  UNL1        0.1151
      7 H          -1.2346    1.8060   -0.0040 H       1  UNL1        0.2955
@<TRIPOS>BOND
     1     1     4    1
     2     1     7    1
     3     2     4    2
     4     3     5    2
     5     4     5    1
     6     5     6    1
