@<TRIPOS>MOLECULE
isocitric_acid
 21 20 0 0 0
SMALL
GASTEIGER

@<TRIPOS>ATOM
      1 O          -0.4835   -0.3308    1.8666 O.3     1  UNL1       -0.3798
      2 O          -1.7239    1.5056   -1.2501 O.3     1  UNL1       -0.4803
      3 O          -1.8115   -1.7198   -1.1728 O.3     1  UNL1       -0.4788
      4 O          -0.6552    2.5000    0.4953 O.2     1  UNL1       -0.2506
      5 O           3.6031   -0.2521    0.7055 O.3     1  UNL1       -0.4806
      6 O          -2.8194   -1.0646    0.7516 O.2     1  UNL1       -0.2481
      7 O           2.5259   -1.1582   -1.0785 O.2     1  UNL1       -0.2510
      8 C           0.1613    0.3687   -0.3733 C.3     1  UNL1        0.1024
      9 C          -0.4193   -0.7514    0.5122 C.3     1  UNL1        0.1647
     10 C           1.5927    0.8049   -0.0256 C.3     1  UNL1        0.0606
     11 C          -0.7614    1.5731   -0.2952 C.2     1  UNL1        0.3114
     12 C          -1.8086   -1.1721    0.0696 C.2     1  UNL1        0.3345
     13 C           2.5998   -0.3033   -0.2055 C.2     1  UNL1        0.3056
     14 H           0.1691    0.0330   -1.4196 H       1  UNL1        0.0450
     15 H           0.2155   -1.6431    0.4856 H       1  UNL1        0.0719
     16 H           1.9066    1.6449   -0.6562 H       1  UNL1        0.0386
     17 H           1.6323    1.1477    1.0157 H       1  UNL1        0.0386
     18 H          -1.0660    0.4450    1.9240 H       1  UNL1        0.2105
     19 H          -2.3228    2.2819   -1.2212 H       1  UNL1        0.2951
     20 H          -2.7105   -2.0010   -1.4464 H       1  UNL1        0.2951
     21 H           4.2512   -0.9772    0.5776 H       1  UNL1        0.2951
@<TRIPOS>BOND
     1     1     9    1
     2     1    18    1
     3     2    11    1
     4     2    19    1
     5     3    12    1
     6     3    20    1
     7     4    11    2
     8     5    13    1
     9     5    21    1
    10     6    12    2
    11     7    13    2
    12     8     9    1
    13     8    10    1
    14     8    11    1
    15     8    14    1
    16     9    12    1
    17     9    15    1
    18    10    13    1
    19    10    16    1
    20    10    17    1
