@<TRIPOS>MOLECULE
lactic_acid
 12 11 0 0 0
SMALL
GASTEIGER

@<TRIPOS>ATOM
      1 O          -1.3875    1.1182    0.1968 O.3     1  UNL1       -0.3809
      2 O           1.4877   -1.0368    0.2617 O.3     1  UNL1       -0.4788
      3 O           1.2263    1.1148   -0.4123 O.2     1  UNL1       -0.2481
      4 C          -0.7078   -0.1118    0.4002 C.3     1  UNL1        0.1486
      5 C          -1.3669   -1.1626   -0.4759 C.3     1  UNL1       -0.0285
      6 C           0.7481    0.0781    0.0295 C.2     1  UNL1        0.3333
      7 H          -0.7822   -0.3748    1.4601 H       1  UNL1        0.0707
      8 H          -1.2848   -0.8968   -1.5360 H       1  UNL1        0.0260
      9 H          -2.4357   -1.2376   -0.2485 H       1  UNL1        0.0260
     10 H          -0.9100   -2.1472   -0.3365 H       1  UNL1        0.0260
     11 H          -1.0263    1.7604    0.8318 H       1  UNL1        0.2105
     12 H           2.4313   -0.9049    0.0279 H       1  UNL1        0.2951
@<TRIPOS>BOND
     1     1     4    1
     2     1    11    1
     3     2     6    1
     4     2    12    1
     5     3     6    2
     6     4     5    1
     7     4     6    1
     8     4     7    1
     9     5     8    1
    10     5     9    1
    11     5    10    1
