@<TRIPOS>MOLECULE
malic_acid
 15 14 0 0 0
SMALL
GASTEIGER

@<TRIPOS>ATOM
      1 O           0.3369   -1.6123    0.1635 O.3     1  UNL1       -0.3801
      2 O           2.1806    1.3793   -0.5787 O.3     1  UNL1       -0.4788
      3 O          -2.8551    0.9762    0.5515 O.3     1  UNL1       -0.4805
      4 O           2.7099   -0.4634    0.6367 O.2     1  UNL1       -0.2481
      5 O          -2.2695   -0.8782   -0.6295 O.2     1  UNL1       -0.2509
      6 C           0.5012   -0.3036   -0.3669 C.3     1  UNL1        0.1614
      7 C          -0.5500    0.6076    0.2647 C.3     1  UNL1        0.0811
      8 C           1.9019    0.1678   -0.0320 C.2     1  UNL1        0.3342
      9 C          -1.9559    0.1265   -0.0092 C.2     1  UNL1        0.3077
     10 H           0.3941   -0.3696   -1.4542 H       1  UNL1        0.0716
     11 H          -0.4182    0.6347    1.3533 H       1  UNL1        0.0409
     12 H          -0.4516    1.6259   -0.1275 H       1  UNL1        0.0409
     13 H           0.3764   -1.5542    1.1335 H       1  UNL1        0.2105
     14 H           3.0912    1.6758   -0.3660 H       1  UNL1        0.2951
     15 H          -3.7790    0.6863    0.3947 H       1  UNL1        0.2951
@<TRIPOS>BOND
     1     1     6    1
     2     1    13    1
     3     2     8    1
     4     2    14    1
     5     3     9    1
     6     3    15    1
     7     4     8    2
     8     5     9    2
     9     6     7    1
    10     6     8    1
    11     6    10    1
    12     7     9    1
    13     7    11    1
    14     7    12    1
