@<TRIPOS>MOLECULE
oxaloacetic_acid
 13 12 0 0 0
SMALL
GASTEIGER

@<TRIPOS>ATOM
      1 O          -2.9675    1.0187   -0.0024 O.3     1  UNL1       -0.4803
      2 O           0.4563   -1.5054   -0.0006 O.2     1  UNL1       -0.2846
      3 O           2.8324   -0.6633    0.0020 O.3     1  UNL1       -0.4751
      4 O          -2.2438   -1.1319   -0.0217 O.2     1  UNL1       -0.2505
      5 O           2.0966    1.5096   -0.0284 O.2     1  UNL1       -0.2419
      6 C          -0.6221    0.6830    0.0295 C.3     1  UNL1        0.1142
      7 C           0.5334   -0.2862    0.0079 C.2     1  UNL1        0.2497
      8 C          -1.9981    0.0656    0.0035 C.2     1  UNL1        0.3125
      9 C           1.9127    0.3099    0.0101 C.2     1  UNL1        0.3732
     10 H          -0.5417    1.2794    0.9445 H       1  UNL1        0.0461
     11 H          -0.5327    1.3283   -0.8510 H       1  UNL1        0.0461
     12 H          -3.8659    0.6256   -0.0253 H       1  UNL1        0.2951
     13 H           3.7474   -0.3103   -0.0212 H       1  UNL1        0.2955
@<TRIPOS>BOND
     1     1     8    1
     2     1    12    1
     3     2     7    2
     4     3     9    1
     5     3    13    1
     6     4     8    2
     7     5     9    2
     8     6     7    1
     9     6     8    1
    10     6    10    1
    11     6    11    1
    12     7     9    1
