@<TRIPOS>MOLECULE
phosphocreatine
 23 22 0 0 0
SMALL
GASTEIGER

@<TRIPOS>ATOM
      1 P           2.3612    0.5112   -0.0918 P.3     1  UNL1        0.5271
      2 O          -3.2508    1.8784    0.4307 O.3     1  UNL1       -0.4784
      3 O           3.1138   -0.0603    1.2304 O.3     1  UNL1       -0.2943
      4 O           2.5709    2.1098    0.1129 O.3     1  UNL1       -0.2943
      5 O          -2.2001    0.8362   -1.2941 O.2     1  UNL1       -0.2474
      6 O           3.0057    0.0247   -1.3634 O.2     1  UNL1       -0.2169
      7 N          -1.1719   -1.0983    0.2721 N.pl3   1  UNL1       -0.2544
      8 N           0.7857    0.2254    0.0895 N.pl3   1  UNL1       -0.0039
      9 N           0.9275   -2.1257   -0.0291 N.pl3   1  UNL1       -0.2886
     10 C          -1.9567   -0.0563    0.9317 C.3     1  UNL1        0.1635
     11 C           0.2135   -0.9537    0.1080 C.cat   1  UNL1        0.3906
     12 C          -1.9391   -2.2036   -0.2966 C.3     1  UNL1        0.0566
     13 C          -2.4597    0.9122   -0.1002 C.2     1  UNL1        0.3391
     14 H          -1.3497    0.4842    1.6659 H       1  UNL1        0.0775
     15 H          -2.8123   -0.4985    1.4541 H       1  UNL1        0.0775
     16 H          -1.8546   -3.0866    0.3447 H       1  UNL1        0.0620
     17 H          -1.5700   -2.4553   -1.2963 H       1  UNL1        0.0620
     18 H          -3.0020   -1.9573   -0.3939 H       1  UNL1        0.0620
     19 H           0.4809   -3.0339    0.0288 H       1  UNL1        0.2547
     20 H           1.9337   -2.1196   -0.1545 H       1  UNL1        0.2547
     21 H           4.0937   -0.0289    1.2644 H       1  UNL1        0.2229
     22 H           3.4639    2.4893   -0.0316 H       1  UNL1        0.2229
     23 H          -3.5787    2.5000   -0.2538 H       1  UNL1        0.2952
@<TRIPOS>BOND
     1     1     3    1
     2     1     4    1
     3     1     6    2
     4     1     8    1
     5     2    13    1
     6     2    23    1
     7     3    21    1
     8     4    22    1
     9     5    13    2
    10     7    10    1
    11     7    11    1
    12     7    12    1
    13     8    11    2
    14     9    11    1
    15     9    19    1
    16     9    20    1
    17    10    13    1
    18    10    14    1
    19    10    15    1
    20    12    16    1
    21    12    17    1
    22    12    18    1
