@<TRIPOS>MOLECULE
phosphoenolpyruvate
 15 14 0 0 0
SMALL
GASTEIGER

@<TRIPOS>ATOM
      1 P           1.7849   -0.0705   -0.0813 P.3     1  UNL1        0.5282
      2 O           0.2514   -0.5324   -0.0688 O.2     1  UNL1       -0.3973
      3 O           2.5755   -1.4796    0.0016 O.3     1  UNL1       -0.2930
      4 O           2.0273    0.5617    1.3883 O.3     1  UNL1       -0.2930
      5 O           2.2082    0.8099   -1.2207 O.2     1  UNL1       -0.2156
      6 O          -2.1395   -1.5730   -0.0632 O.3     1  UNL1       -0.4750
      7 O          -3.1754    0.4469    0.0345 O.2     1  UNL1       -0.2417
      8 C          -0.7946    0.3683   -0.0134 C.2     1  UNL1        0.2084
      9 C          -2.1529   -0.2223   -0.0105 C.2     1  UNL1        0.3718
     10 C          -0.5849    1.6910    0.0335 C.2     1  UNL1       -0.0491
     11 H           0.3898    2.1580    0.0204 H       1  UNL1        0.0573
     12 H          -1.4236    2.3802    0.0777 H       1  UNL1        0.0573
     13 H           2.6744   -2.0163   -0.8135 H       1  UNL1        0.2231
     14 H           1.7680    1.4887    1.5734 H       1  UNL1        0.2231
     15 H          -3.0450   -1.9503   -0.0609 H       1  UNL1        0.2955
@<TRIPOS>BOND
     1     1     2    1
     2     1     3    1
     3     1     4    1
     4     1     5    2
     5     2     8    1
     6     3    13    1
     7     4    14    1
     8     6     9    1
     9     6    15    1
    10     7     9    2
    11     8     9    1
    12     8    10    2
    13    10    11    1
    14    10    12    1
