@<TRIPOS>MOLECULE
prpp
 35 35 0 0 0
SMALL
GASTEIGER

@<TRIPOS>ATOM
      1 P          -2.3831   -1.2726   -1.0468 P.3     1  UNL1        0.4856
      2 P           4.7574   -1.1926    0.2738 P.3     1  UNL1        0.4724
      3 P          -4.1395   -0.2613    1.0852 P.3     1  UNL1        0.4808
      4 O           0.6928    0.0436   -0.5977 O.3     1  UNL1       -0.3400
      5 O          -1.6019    0.1343   -1.2201 O.3     1  UNL1       -0.2536
      6 O           1.4373    3.4564    0.2339 O.3     1  UNL1       -0.3864
      7 O          -0.5153    2.6037   -1.5039 O.3     1  UNL1       -0.3841
      8 O           3.4592   -0.4472   -0.3413 O.3     1  UNL1       -0.2841
      9 O          -3.0005   -1.2131    0.4461 O.3     1  UNL1       -0.1861
     10 O          -1.2054   -2.3743   -0.9171 O.3     1  UNL1       -0.3022
     11 O          -3.3921   -1.5685   -2.1185 O.2     1  UNL1       -0.2268
     12 O           4.2478   -1.7270    1.7125 O.3     1  UNL1       -0.3026
     13 O           5.7318    0.0393    0.6584 O.3     1  UNL1       -0.3026
     14 O           5.3722   -2.2330   -0.6161 O.2     1  UNL1       -0.2275
     15 O          -4.3477   -0.8807    2.5635 O.3     1  UNL1       -0.3023
     16 O          -5.4801   -0.7031    0.2979 O.3     1  UNL1       -0.3023
     17 O          -3.8254    1.2051    1.0444 O.2     1  UNL1       -0.2271
     18 C           0.8693    2.1768    0.4134 C.3     1  UNL1        0.1141
     19 C           1.6389    1.1000   -0.3412 C.3     1  UNL1        0.1139
     20 C          -0.5101    2.0400   -0.1940 C.3     1  UNL1        0.1346
     21 C          -0.6254    0.5241   -0.2711 C.3     1  UNL1        0.1988
     22 C           2.8200    0.5500    0.4387 C.3     1  UNL1        0.0879
     23 H           0.8228    1.9540    1.4867 H       1  UNL1        0.0648
     24 H           1.9947    1.4608   -1.3145 H       1  UNL1        0.0647
     25 H          -1.3045    2.5207    0.3814 H       1  UNL1        0.0671
     26 H          -0.8717    0.1222    0.7185 H       1  UNL1        0.0943
     27 H           2.4752    0.0927    1.3719 H       1  UNL1        0.0592
     28 H           3.5311    1.3485    0.6705 H       1  UNL1        0.0592
     29 H           2.3410    3.4307    0.5910 H       1  UNL1        0.2100
     30 H          -0.0312    2.0121   -2.1038 H       1  UNL1        0.2101
     31 H          -0.7611   -2.6916   -1.7320 H       1  UNL1        0.2220
     32 H           4.8509   -2.2788    2.2546 H       1  UNL1        0.2220
     33 H           6.6402   -0.1546    0.9737 H       1  UNL1        0.2220
     34 H          -4.9401   -0.4175    3.1934 H       1  UNL1        0.2220
     35 H          -6.3101   -0.2049    0.4566 H       1  UNL1        0.2220
@<TRIPOS>BOND
     1     1     5    1
     2     1     9    1
     3     1    10    1
     4     1    11    2
     5     2     8    1
     6     2    12    1
     7     2    13    1
     8     2    14    2
     9     3     9    1
    10     3    15    1
    11     3    16    1
    12     3    17    2
    13     4    19    1
    14     4    21    1
    15     5    21    1
    16     6    18    1
    17     6    29    1
    18     7    20    1
    19     7    30    1
    20     8    22    1
    21    10    31    1
    22    12    32    1
    23    13    33    1
    24    15    34    1
    25    16    35    1
    26    18    19    1
    27    18    20    1
    28    18    23    1
    29    19    22    1
    30    19    24    1
    31    20    21    1
    32    20    25    1
    33    21    26    1
    34    22    27    1
    35    22    28    1
