@<TRIPOS>MOLECULE
pyruvic_acid
 10 9 0 0 0
SMALL
GASTEIGER

@<TRIPOS>ATOM
      1 O          -1.4581   -0.9961    0.0082 O.3     1  UNL1       -0.4751
      2 O           1.0591   -1.3165   -0.0143 O.2     1  UNL1       -0.2854
      3 O          -1.1940    1.2825   -0.0180 O.2     1  UNL1       -0.2419
      4 C           0.7111   -0.1452   -0.0001 C.2     1  UNL1        0.2360
      5 C           1.6443    1.0273    0.0100 C.3     1  UNL1        0.0052
      6 C          -0.7624    0.1480    0.0141 C.2     1  UNL1        0.3723
      7 H           1.4810    1.6386   -0.8810 H       1  UNL1        0.0311
      8 H           2.6775    0.6689    0.0045 H       1  UNL1        0.0311
      9 H           1.4842    1.6204    0.9138 H       1  UNL1        0.0311
     10 H          -2.4268   -0.8423   -0.0073 H       1  UNL1        0.2955
@<TRIPOS>BOND
     1     1     6    1
     2     1    10    1
     3     2     4    2
     4     3     6    2
     5     4     5    1
     6     4     6    1
     7     5     7    1
     8     5     8    1
     9     5     9    1
