@<TRIPOS>MOLECULE
ribose_5_phosphate
 25 25 0 0 0
SMALL
GASTEIGER

@<TRIPOS>ATOM
      1 P           3.2263   -0.0826   -0.1205 P.3     1  UNL1        0.4724
      2 O          -0.9797   -1.0199   -0.6086 O.3     1  UNL1       -0.3407
      3 O          -1.9453    2.2401    0.5356 O.3     1  UNL1       -0.3864
      4 O          -3.4172    0.6528   -1.1537 O.3     1  UNL1       -0.3841
      5 O          -2.3779   -2.0754    0.9625 O.3     1  UNL1       -0.3649
      6 O           1.6728   -0.0609   -0.5740 O.3     1  UNL1       -0.2841
      7 O           3.2057   -0.8872    1.2821 O.3     1  UNL1       -0.3026
      8 O           3.4910    1.4471    0.3320 O.3     1  UNL1       -0.3026
      9 O           4.1802   -0.6130   -1.1506 O.2     1  UNL1       -0.2275
     10 C          -1.7835    0.8394    0.6046 C.3     1  UNL1        0.1141
     11 C          -0.6650    0.3496   -0.3004 C.3     1  UNL1        0.1139
     12 C          -2.9728    0.0692    0.0670 C.3     1  UNL1        0.1339
     13 C          -2.3422   -1.2856   -0.2202 C.3     1  UNL1        0.1854
     14 C           0.7078    0.4266    0.3441 C.3     1  UNL1        0.0879
     15 H          -1.6021    0.5536    1.6482 H       1  UNL1        0.0648
     16 H          -0.6399    0.8996   -1.2495 H       1  UNL1        0.0647
     17 H          -3.8133    0.0418    0.7658 H       1  UNL1        0.0671
     18 H          -2.8462   -1.8217   -1.0311 H       1  UNL1        0.0935
     19 H           0.7378   -0.1977    1.2430 H       1  UNL1        0.0592
     20 H           0.9463    1.4593    0.6152 H       1  UNL1        0.0592
     21 H          -1.1166    2.6482    0.8385 H       1  UNL1        0.2100
     22 H          -2.7399    0.5167   -1.8368 H       1  UNL1        0.2101
     23 H          -2.2933   -3.0040    0.6877 H       1  UNL1        0.2126
     24 H           4.0569   -1.0896    1.7255 H       1  UNL1        0.2220
     25 H           4.4025    1.7208    0.5694 H       1  UNL1        0.2220
@<TRIPOS>BOND
     1     1     6    1
     2     1     7    1
     3     1     8    1
     4     1     9    2
     5     2    11    1
     6     2    13    1
     7     3    10    1
     8     3    21    1
     9     4    12    1
    10     4    22    1
    11     5    13    1
    12     5    23    1
    13     6    14    1
    14     7    24    1
    15     8    25    1
    16    10    11    1
    17    10    12    1
    18    10    15    1
    19    11    14    1
    20    11    16    1
    21    12    13    1
    22    12    17    1
    23    13    18    1
    24    14    19    1
    25    14    20    1
