@<TRIPOS>MOLECULE
ribulose_1_5_bisphosphate
 30 29 0 0 0
SMALL
GASTEIGER

@<TRIPOS>ATOM
      1 P           3.6422    1.4686    0.1025 P.3     1  UNL1        0.4724
      2 P          -3.9590    1.1162   -0.0882 P.3     1  UNL1        0.4728
      3 O           1.9777   -2.0575   -1.6776 O.3     1  UNL1       -0.3865
      4 O           2.6941    0.4451   -0.7122 O.3     1  UNL1       -0.2841
      5 O           0.7568   -3.0253    0.6911 O.3     1  UNL1       -0.3815
      6 O          -2.8742    0.1157    0.5825 O.3     1  UNL1       -0.2790
      7 O          -1.1103   -1.4916    1.7823 O.2     1  UNL1       -0.2921
      8 O           4.4074    0.5215    1.1668 O.3     1  UNL1       -0.3026
      9 O           2.5846    2.2789    1.0190 O.3     1  UNL1       -0.3026
     10 O           4.5319    2.3270   -0.7482 O.2     1  UNL1       -0.2275
     11 O          -4.6484    0.2157   -1.2411 O.3     1  UNL1       -0.3026
     12 O          -3.0357    2.1476   -0.9242 O.3     1  UNL1       -0.3026
     13 O          -4.9100    1.7578    0.8794 O.2     1  UNL1       -0.2275
     14 C           1.0320   -1.2738   -0.9450 C.3     1  UNL1        0.1118
     15 C           0.0469   -2.1940   -0.2156 C.3     1  UNL1        0.1431
     16 C           1.8220   -0.4021    0.0295 C.3     1  UNL1        0.0878
     17 C          -1.0180   -1.4186    0.5565 C.2     1  UNL1        0.1900
     18 C          -1.9401   -0.5312   -0.2576 C.3     1  UNL1        0.1198
     19 H           0.5157   -0.6458   -1.6784 H       1  UNL1        0.0647
     20 H          -0.4510   -2.8547   -0.9339 H       1  UNL1        0.0701
     21 H           1.1515    0.2169    0.6323 H       1  UNL1        0.0592
     22 H           2.4336   -1.0228    0.6921 H       1  UNL1        0.0592
     23 H          -1.3435    0.2253   -0.7716 H       1  UNL1        0.0646
     24 H          -2.4662   -1.1574   -0.9835 H       1  UNL1        0.0646
     25 H           2.5879   -1.4416   -2.1185 H       1  UNL1        0.2100
     26 H           0.1263   -3.6736    1.0489 H       1  UNL1        0.2105
     27 H           5.0948    0.9161    1.7447 H       1  UNL1        0.2220
     28 H           2.9031    3.0374    1.5533 H       1  UNL1        0.2220
     29 H          -5.4016    0.5882   -1.7472 H       1  UNL1        0.2220
     30 H          -3.4587    2.9200   -1.3563 H       1  UNL1        0.2220
@<TRIPOS>BOND
     1     1     4    1
     2     1     8    1
     3     1     9    1
     4     1    10    2
     5     2     6    1
     6     2    11    1
     7     2    12    1
     8     2    13    2
     9     3    14    1
    10     3    25    1
    11     4    16    1
    12     5    15    1
    13     5    26    1
    14     6    18    1
    15     7    17    2
    16     8    27    1
    17     9    28    1
    18    11    29    1
    19    12    30    1
    20    14    15    1
    21    14    16    1
    22    14    19    1
    23    15    17    1
    24    15    20    1
    25    16    21    1
    26    16    22    1
    27    17    18    1
    28    18    23    1
    29    18    24    1
