@<TRIPOS>MOLECULE
ribulose_5_phosphate
 25 24 0 0 0
SMALL
GASTEIGER

@<TRIPOS>ATOM
      1 P          -3.0316   -0.5040    0.0376 P.3     1  UNL1        0.4724
      2 O          -1.7689    0.2246   -0.6587 O.3     1  UNL1       -0.2841
      3 O          -0.0227    2.3464   -1.0554 O.3     1  UNL1       -0.3865
      4 O           1.6626    1.8516    1.1702 O.3     1  UNL1       -0.3815
      5 O           2.6535   -0.5973    1.3940 O.2     1  UNL1       -0.2921
      6 O           3.3690   -2.3009   -0.5347 O.3     1  UNL1       -0.3874
      7 O          -3.1885    0.2641    1.4519 O.3     1  UNL1       -0.3026
      8 O          -2.4232   -1.9414    0.4605 O.3     1  UNL1       -0.3026
      9 O          -4.2745   -0.5639   -0.8015 O.2     1  UNL1       -0.2275
     10 C           0.4879    1.0402   -0.7746 C.3     1  UNL1        0.1118
     11 C           1.8357    1.1519   -0.0535 C.3     1  UNL1        0.1431
     12 C          -0.5539    0.3189    0.0785 C.3     1  UNL1        0.0878
     13 C           2.4576   -0.2111    0.2412 C.2     1  UNL1        0.1892
     14 C           2.7971   -1.0791   -0.9554 C.3     1  UNL1        0.1049
     15 H           0.5985    0.5356   -1.7402 H       1  UNL1        0.0647
     16 H           2.5381    1.7348   -0.6597 H       1  UNL1        0.0701
     17 H          -0.2165   -0.6881    0.3394 H       1  UNL1        0.0592
     18 H          -0.7559    0.8810    0.9959 H       1  UNL1        0.0592
     19 H           1.8876   -1.3143   -1.5114 H       1  UNL1        0.0637
     20 H           3.5044   -0.5552   -1.6039 H       1  UNL1        0.0637
     21 H          -0.8784    2.2349   -1.5042 H       1  UNL1        0.2100
     22 H           2.5461    2.0093    1.5448 H       1  UNL1        0.2105
     23 H           4.2217   -2.0951   -0.1148 H       1  UNL1        0.2100
     24 H          -3.9411    0.0326    2.0367 H       1  UNL1        0.2220
     25 H          -3.0257   -2.6218    0.8296 H       1  UNL1        0.2220
@<TRIPOS>BOND
     1     1     2    1
     2     1     7    1
     3     1     8    1
     4     1     9    2
     5     2    12    1
     6     3    10    1
     7     3    21    1
     8     4    11    1
     9     4    22    1
    10     5    13    2
    11     6    14    1
    12     6    23    1
    13     7    24    1
    14     8    25    1
    15    10    11    1
    16    10    12    1
    17    10    15    1
    18    11    13    1
    19    11    16    1
    20    12    17    1
    21    12    18    1
    22    13    14    1
    23    14    19    1
    24    14    20    1
