@<TRIPOS>MOLECULE
succinic_acid
 14 13 0 0 0
SMALL
GASTEIGER

@<TRIPOS>ATOM
      1 O           2.8998   -0.8740    0.0114 O.3     1  UNL1       -0.4806
      2 O          -2.8946    0.8812    0.0123 O.3     1  UNL1       -0.4806
      3 O           2.1380    1.2670   -0.0078 O.2     1  UNL1       -0.2510
      4 O          -2.1461   -1.2651   -0.0121 O.2     1  UNL1       -0.2510
      5 C           0.5381   -0.5438    0.0053 C.3     1  UNL1        0.0548
      6 C          -0.5344    0.5341   -0.0057 C.3     1  UNL1        0.0548
      7 C           1.9192    0.0626   -0.0050 C.2     1  UNL1        0.3052
      8 C          -1.9199   -0.0620    0.0016 C.2     1  UNL1        0.3052
      9 H           0.4392   -1.1857   -0.8775 H       1  UNL1        0.0383
     10 H           0.4417   -1.1642    0.9035 H       1  UNL1        0.0383
     11 H          -0.4360    1.1567   -0.9023 H       1  UNL1        0.0383
     12 H          -0.4342    1.1747    0.8780 H       1  UNL1        0.0383
     13 H           3.7932   -0.4688    0.0145 H       1  UNL1        0.2951
     14 H          -3.7906    0.4818    0.0112 H       1  UNL1        0.2951
@<TRIPOS>BOND
     1     1     7    1
     2     1    13    1
     3     2     8    1
     4     2    14    1
     5     3     7    2
     6     4     8    2
     7     5     6    1
     8     5     7    1
     9     5     9    1
    10     5    10    1
    11     6     8    1
    12     6    11    1
    13     6    12    1
