@<TRIPOS>MOLECULE
uric_acid
 16 17 0 0 0
SMALL
GASTEIGER

@<TRIPOS>ATOM
      1 O          -0.7342   -2.6384   -0.0006 O.2     1  UNL1       -0.2654
      2 O           3.6790    0.3794    0.0000 O.2     1  UNL1       -0.2467
      3 O          -3.2538    1.2735    0.0009 O.2     1  UNL1       -0.2466
      4 N           1.4967    1.3382   -0.0005 N.ar    1  UNL1       -0.2922
      5 N           1.6749   -0.9098    0.0007 N.ar    1  UNL1       -0.3006
      6 N          -0.9486    1.4240   -0.0006 N.ar    1  UNL1       -0.2921
      7 N          -2.0120   -0.6867   -0.0003 N.ar    1  UNL1       -0.2733
      8 C           0.2471    0.7814   -0.0002 C.ar    1  UNL1        0.1457
      9 C           0.3595   -0.5472    0.0003 C.ar    1  UNL1        0.1494
     10 C          -0.8164   -1.4164    0.0002 C.ar    1  UNL1        0.2797
     11 C           2.4620    0.2830    0.0002 C.ar    1  UNL1        0.3262
     12 C          -2.1542    0.7189   -0.0002 C.ar    1  UNL1        0.3283
     13 H           1.6882    2.3322   -0.0011 H       1  UNL1        0.1718
     14 H           2.0195   -1.8617    0.0010 H       1  UNL1        0.1706
     15 H          -0.9560    2.4390   -0.0006 H       1  UNL1        0.1718
     16 H          -2.8728   -1.2270   -0.0004 H       1  UNL1        0.1735
@<TRIPOS>BOND
     1     1    10    2
     2     2    11    2
     3     3    12    2
     4     4     8   ar
     5     4    11   ar
     6     4    13    1
     7     5     9   ar
     8     5    11   ar
     9     5    14    1
    10     6     8   ar
    11     6    12   ar
    12     6    15    1
    13     7    10   ar
    14     7    12   ar
    15     7    16    1
    16     8     9   ar
    17     9    10   ar
