@<TRIPOS>MOLECULE
alpha_pinene
 26 27 0 0 0
SMALL
GASTEIGER

@<TRIPOS>ATOM
      1 C          -1.1133   -0.3452    0.2340 C.3     1  UNL1       -0.0253
      2 C          -0.8716    1.1256   -0.2359 C.3     1  UNL1       -0.0314
      3 C           0.0976   -0.6847   -0.7010 C.3     1  UNL1       -0.0145
      4 C          -0.4540    0.4778   -1.5955 C.3     1  UNL1       -0.0424
      5 C           0.3013    1.8049    0.4928 C.3     1  UNL1       -0.0311
      6 C           1.4176   -0.3422   -0.0714 C.2     1  UNL1       -0.0729
      7 C          -2.4385   -0.9385   -0.2213 C.3     1  UNL1       -0.0590
      8 C          -0.9573   -0.6351    1.7134 C.3     1  UNL1       -0.0590
      9 C           1.4909    0.8735    0.5021 C.2     1  UNL1       -0.0845
     10 C           2.5274   -1.3362   -0.1172 C.3     1  UNL1       -0.0435
     11 H          -1.7596    1.7643   -0.2822 H       1  UNL1        0.0309
     12 H           0.0824   -1.6753   -1.1661 H       1  UNL1        0.0351
     13 H           0.2906    1.0340   -2.1773 H       1  UNL1        0.0274
     14 H          -1.2590    0.2236   -2.2911 H       1  UNL1        0.0274
     15 H           0.0191    2.0669    1.5180 H       1  UNL1        0.0310
     16 H           0.5728    2.7321   -0.0237 H       1  UNL1        0.0310
     17 H          -3.2716   -0.4986    0.3397 H       1  UNL1        0.0235
     18 H          -2.4585   -2.0202   -0.0429 H       1  UNL1        0.0235
     19 H          -2.6704   -0.7968   -1.2793 H       1  UNL1        0.0235
     20 H          -0.9733   -1.7161    1.8978 H       1  UNL1        0.0235
     21 H          -1.7870   -0.1966    2.2809 H       1  UNL1        0.0235
     22 H          -0.0428   -0.2617    2.1771 H       1  UNL1        0.0235
     23 H           2.4033    1.2106    0.9830 H       1  UNL1        0.0572
     24 H           2.7848   -1.5706   -1.1549 H       1  UNL1        0.0274
     25 H           2.2280   -2.2624    0.3834 H       1  UNL1        0.0274
     26 H           3.4297   -0.9624    0.3777 H       1  UNL1        0.0274
@<TRIPOS>BOND
     1     1     2    1
     2     1     3    1
     3     1     7    1
     4     1     8    1
     5     2     4    1
     6     2     5    1
     7     2    11    1
     8     3     4    1
     9     3     6    1
    10     3    12    1
    11     4    13    1
    12     4    14    1
    13     5     9    1
    14     5    15    1
    15     5    16    1
    16     6     9    2
    17     6    10    1
    18     7    17    1
    19     7    18    1
    20     7    19    1
    21     8    20    1
    22     8    21    1
    23     8    22    1
    24     9    23    1
    25    10    24    1
    26    10    25    1
    27    10    26    1
