@<TRIPOS>MOLECULE
astaxanthin
 96 97 0 0 0
SMALL
GASTEIGER

@<TRIPOS>ATOM
      1 O         -15.2150    2.2071   -0.1451 O.3     1  UNL1       -0.3839
      2 O          15.4443   -1.6082   -0.1634 O.3     1  UNL1       -0.3839
      3 O         -13.0998    2.8689    1.3177 O.2     1  UNL1       -0.2896
      4 O          13.4097   -2.4850    1.3007 O.2     1  UNL1       -0.2896
      5 C         -12.8810   -0.6762   -0.8824 C.3     1  UNL1       -0.0067
      6 C          12.8270    1.0225   -0.8935 C.3     1  UNL1       -0.0067
      7 C         -13.9145    0.4476   -1.1310 C.3     1  UNL1       -0.0104
      8 C          13.9696    0.0106   -1.1451 C.3     1  UNL1       -0.0104
      9 C         -11.7313   -0.1745    0.0197 C.2     1  UNL1       -0.0353
     10 C          11.7357    0.4047    0.0091 C.2     1  UNL1       -0.0353
     11 C         -14.3040    1.1609    0.1471 C.3     1  UNL1        0.1180
     12 C          14.4315   -0.6611    0.1315 C.3     1  UNL1        0.1180
     13 C         -12.3861   -1.1165   -2.2826 C.3     1  UNL1       -0.0557
     14 C         -13.5793   -1.8787   -0.2099 C.3     1  UNL1       -0.0557
     15 C          12.2878    1.4120   -2.2925 C.3     1  UNL1       -0.0557
     16 C          13.3996    2.2891   -0.2198 C.3     1  UNL1       -0.0557
     17 C         -11.8016    0.9522    0.7688 C.2     1  UNL1       -0.0018
     18 C          11.9217   -0.7101    0.7563 C.2     1  UNL1       -0.0018
     19 C         -13.0702    1.7633    0.7770 C.2     1  UNL1        0.1875
     20 C          13.2665   -1.3874    0.7617 C.2     1  UNL1        0.1875
     21 C         -10.5366   -1.0038    0.0139 C.2     1  UNL1       -0.0575
     22 C          10.4625    1.1076    0.0060 C.2     1  UNL1       -0.0575
     23 C         -10.7262    1.5100    1.6662 C.3     1  UNL1       -0.0360
     24 C          10.9101   -1.3762    1.6540 C.3     1  UNL1       -0.0360
     25 C          -9.2932   -0.4977    0.0134 C.2     1  UNL1       -0.0586
     26 C           9.2759    0.4788    0.0060 C.2     1  UNL1       -0.0586
     27 C          -8.0457   -1.2620    0.0017 C.2     1  UNL1       -0.0504
     28 C           7.9589    1.1161    0.0066 C.2     1  UNL1       -0.0504
     29 C          -8.1465   -2.7678   -0.0470 C.3     1  UNL1       -0.0397
     30 C           7.9174    2.6271    0.0162 C.3     1  UNL1       -0.0397
     31 C          -6.8212   -0.6928    0.0019 C.2     1  UNL1       -0.0588
     32 C           6.7893    0.4403    0.0067 C.2     1  UNL1       -0.0588
     33 C          -5.5222   -1.3361   -0.0089 C.2     1  UNL1       -0.0613
     34 C           5.4383    0.9717    0.0073 C.2     1  UNL1       -0.0613
     35 C          -4.3527   -0.6748   -0.0079 C.2     1  UNL1       -0.0588
     36 C           4.3515    0.1802    0.0072 C.2     1  UNL1       -0.0588
     37 C          -3.0096   -1.2633   -0.0003 C.2     1  UNL1       -0.0504
     38 C           2.9563    0.6210    0.0045 C.2     1  UNL1       -0.0504
     39 C          -2.9150   -2.7682   -0.0152 C.3     1  UNL1       -0.0397
     40 C           2.6869    2.1058    0.0348 C.3     1  UNL1       -0.0397
     41 C          -1.9494   -0.4265   -0.0003 C.2     1  UNL1       -0.0588
     42 C           1.9090   -0.2313    0.0046 C.2     1  UNL1       -0.0588
     43 C          -0.5420   -0.7780    0.0022 C.2     1  UNL1       -0.0615
     44 C           0.4938    0.0787    0.0021 C.2     1  UNL1       -0.0615
     45 H         -14.8147    0.0529   -1.6211 H       1  UNL1        0.0303
     46 H         -13.5056    1.1858   -1.8372 H       1  UNL1        0.0303
     47 H          13.6374   -0.7645   -1.8520 H       1  UNL1        0.0303
     48 H          14.8241    0.4959   -1.6355 H       1  UNL1        0.0303
     49 H         -14.7810    0.4866    0.8651 H       1  UNL1        0.0676
     50 H          14.8380    0.0573    0.8501 H       1  UNL1        0.0676
     51 H         -13.2295   -1.3756   -2.9337 H       1  UNL1        0.0238
     52 H         -11.8196   -0.3164   -2.7734 H       1  UNL1        0.0238
     53 H         -11.7402   -2.0002   -2.2323 H       1  UNL1        0.0238
     54 H         -14.4720   -2.1792   -0.7707 H       1  UNL1        0.0238
     55 H         -12.9226   -2.7545   -0.1606 H       1  UNL1        0.0238
     56 H         -13.8920   -1.6496    0.8148 H       1  UNL1        0.0238
     57 H          13.0996    1.7568   -2.9441 H       1  UNL1        0.0238
     58 H          11.8054    0.5589   -2.7839 H       1  UNL1        0.0238
     59 H          11.5551    2.2250   -2.2401 H       1  UNL1        0.0238
     60 H          14.2564    2.6799   -0.7810 H       1  UNL1        0.0238
     61 H          12.6570    3.0933   -0.1686 H       1  UNL1        0.0238
     62 H          13.7351    2.0917    0.8041 H       1  UNL1        0.0238
     63 H         -10.7013   -2.0762    0.0388 H       1  UNL1        0.0621
     64 H          10.5188    2.1910    0.0332 H       1  UNL1        0.0621
     65 H         -10.1255    2.2552    1.1355 H       1  UNL1        0.0279
     66 H         -10.0785    0.7414    2.0957 H       1  UNL1        0.0279
     67 H         -11.1658    2.0055    2.5402 H       1  UNL1        0.0279
     68 H          10.1877   -0.6783    2.0853 H       1  UNL1        0.0279
     69 H          10.3876   -2.1775    1.1224 H       1  UNL1        0.0279
     70 H          11.3989   -1.8258    2.5266 H       1  UNL1        0.0279
     71 H         -15.5033    2.5899    0.7012 H       1  UNL1        0.2104
     72 H          15.7713   -1.9609    0.6819 H       1  UNL1        0.2104
     73 H          -9.1389    0.5758   -0.0630 H       1  UNL1        0.0620
     74 H           9.2289   -0.6042   -0.0754 H       1  UNL1        0.0620
     75 H          -7.2118   -3.3164   -0.1546 H       1  UNL1        0.0278
     76 H          -8.7612   -3.0754   -0.9018 H       1  UNL1        0.0278
     77 H          -8.6223   -3.1398    0.8681 H       1  UNL1        0.0278
     78 H           8.4326    3.0201   -0.8686 H       1  UNL1        0.0278
     79 H           8.4284    3.0091    0.9082 H       1  UNL1        0.0278
     80 H           6.9327    3.0917    0.0166 H       1  UNL1        0.0278
     81 H          -6.7774    0.3969    0.0209 H       1  UNL1        0.0620
     82 H           6.8445   -0.6492    0.0046 H       1  UNL1        0.0620
     83 H          -5.4935   -2.4172    0.0001 H       1  UNL1        0.0618
     84 H           5.2996    2.0435    0.0027 H       1  UNL1        0.0618
     85 H          -4.3875    0.4148   -0.0083 H       1  UNL1        0.0620
     86 H           4.4909   -0.9005    0.0075 H       1  UNL1        0.0620
     87 H          -2.1322    0.6486    0.0014 H       1  UNL1        0.0620
     88 H           2.1253   -1.3001   -0.0019 H       1  UNL1        0.0620
     89 H          -3.3944   -3.1911    0.8748 H       1  UNL1        0.0278
     90 H          -1.8915   -3.1478   -0.0255 H       1  UNL1        0.0278
     91 H          -3.4053   -3.1754   -0.9066 H       1  UNL1        0.0278
     92 H           3.1814    2.5584    0.9030 H       1  UNL1        0.0278
     93 H           3.0879    2.5760   -0.8709 H       1  UNL1        0.0278
     94 H           1.6456    2.4162    0.1030 H       1  UNL1        0.0278
     95 H          -0.2990   -1.8364    0.0089 H       1  UNL1        0.0618
     96 H           0.2160    1.1271   -0.0092 H       1  UNL1        0.0618
@<TRIPOS>BOND
     1     1    11    1
     2     1    71    1
     3     2    12    1
     4     2    72    1
     5     3    19    2
     6     4    20    2
     7     5     7    1
     8     5     9    1
     9     5    13    1
    10     5    14    1
    11     6     8    1
    12     6    10    1
    13     6    15    1
    14     6    16    1
    15     7    11    1
    16     7    45    1
    17     7    46    1
    18     8    12    1
    19     8    47    1
    20     8    48    1
    21     9    17    2
    22     9    21    1
    23    10    18    2
    24    10    22    1
    25    11    19    1
    26    11    49    1
    27    12    20    1
    28    12    50    1
    29    13    51    1
    30    13    52    1
    31    13    53    1
    32    14    54    1
    33    14    55    1
    34    14    56    1
    35    15    57    1
    36    15    58    1
    37    15    59    1
    38    16    60    1
    39    16    61    1
    40    16    62    1
    41    17    19    1
    42    17    23    1
    43    18    20    1
    44    18    24    1
    45    21    25    2
    46    21    63    1
    47    22    26    2
    48    22    64    1
    49    23    65    1
    50    23    66    1
    51    23    67    1
    52    24    68    1
    53    24    69    1
    54    24    70    1
    55    25    27    1
    56    25    73    1
    57    26    28    1
    58    26    74    1
    59    27    29    1
    60    27    31    2
    61    28    30    1
    62    28    32    2
    63    29    75    1
    64    29    76    1
    65    29    77    1
    66    30    78    1
    67    30    79    1
    68    30    80    1
    69    31    33    1
    70    31    81    1
    71    32    34    1
    72    32    82    1
    73    33    35    2
    74    33    83    1
    75    34    36    2
    76    34    84    1
    77    35    37    1
    78    35    85    1
    79    36    38    1
    80    36    86    1
    81    37    39    1
    82    37    41    2
    83    38    40    1
    84    38    42    2
    85    39    89    1
    86    39    90    1
    87    39    91    1
    88    40    92    1
    89    40    93    1
    90    40    94    1
    91    41    43    1
    92    41    87    1
    93    42    44    1
    94    42    88    1
    95    43    44    2
    96    43    95    1
    97    44    96    1
