@<TRIPOS>MOLECULE
dmapp
 26 25 0 0 0
SMALL
GASTEIGER

@<TRIPOS>ATOM
      1 P          -1.3319    1.4984    0.0641 P.3     1  UNL1        0.4837
      2 P          -1.8905   -1.3896    0.0344 P.3     1  UNL1        0.4808
      3 O           0.2358    1.3030    0.4010 O.3     1  UNL1       -0.2823
      4 O          -1.7864    0.0946   -0.5964 O.3     1  UNL1       -0.1862
      5 O          -1.3537    2.5218   -1.1888 O.3     1  UNL1       -0.3022
      6 O          -2.1724    1.9301    1.2307 O.2     1  UNL1       -0.2269
      7 O          -2.5672   -2.2476   -1.1565 O.3     1  UNL1       -0.3023
      8 O          -3.0779   -1.2505    1.1221 O.3     1  UNL1       -0.3023
      9 O          -0.5977   -1.9374    0.5627 O.2     1  UNL1       -0.2271
     10 C           1.1344    0.8953   -0.6240 C.3     1  UNL1        0.0775
     11 C           3.2966   -0.3070    0.0250 C.2     1  UNL1       -0.0775
     12 C           2.5169    0.7873   -0.0615 C.2     1  UNL1       -0.0594
     13 C           4.6708   -0.2149    0.6347 C.3     1  UNL1       -0.0440
     14 C           2.9231   -1.6835   -0.4476 C.3     1  UNL1       -0.0440
     15 H           0.7762   -0.0342   -1.0673 H       1  UNL1        0.0610
     16 H           1.1377    1.6563   -1.4115 H       1  UNL1        0.0610
     17 H           2.9138    1.7274    0.3204 H       1  UNL1        0.0594
     18 H           4.7453   -0.8790    1.5022 H       1  UNL1        0.0274
     19 H           5.4304   -0.5106   -0.0964 H       1  UNL1        0.0274
     20 H           4.9119    0.7988    0.9717 H       1  UNL1        0.0274
     21 H           2.9156   -2.3803    0.3972 H       1  UNL1        0.0274
     22 H           1.9426   -1.7364   -0.9232 H       1  UNL1        0.0274
     23 H           3.6556   -2.0398   -1.1797 H       1  UNL1        0.0274
     24 H          -1.2476    3.4820   -1.0186 H       1  UNL1        0.2220
     25 H          -2.6606   -3.2180   -1.0488 H       1  UNL1        0.2220
     26 H          -3.2805   -2.0136    1.7042 H       1  UNL1        0.2220
@<TRIPOS>BOND
     1     1     3    1
     2     1     4    1
     3     1     5    1
     4     1     6    2
     5     2     4    1
     6     2     7    1
     7     2     8    1
     8     2     9    2
     9     3    10    1
    10     5    24    1
    11     7    25    1
    12     8    26    1
    13    10    12    1
    14    10    15    1
    15    10    16    1
    16    11    12    2
    17    11    13    1
    18    11    14    1
    19    12    17    1
    20    13    18    1
    21    13    19    1
    22    13    20    1
    23    14    21    1
    24    14    22    1
    25    14    23    1
