@<TRIPOS>MOLECULE
dolichol_phosphate_c55
 151 150 0 0 0
SMALL
GASTEIGER

@<TRIPOS>ATOM
      1 P          -9.8214    2.9462   14.7031 P.3     1  UNL1        0.4727
      2 O          -9.7291    4.0357   13.4369 O.3     1  UNL1       -0.2827
      3 O         -10.0440    3.9347   15.9989 O.3     1  UNL1       -0.3026
      4 O          -8.1213    3.2022   14.8957 O.3     1  UNL1       -0.3026
      5 O         -11.3430    2.7170   14.5307 O.2     1  UNL1       -0.2275
      6 C           0.7950   22.9105   -2.0247 C.3     1  UNL1       -0.0286
      7 C          -1.0772   18.4097   -1.0673 C.3     1  UNL1       -0.0286
      8 C           5.5166   23.8987   -3.1184 C.3     1  UNL1       -0.0286
      9 C          -2.7490   14.3609   -0.1355 C.3     1  UNL1       -0.0286
     10 C          -1.4114   19.6424   -1.9132 C.3     1  UNL1       -0.0308
     11 C           2.1397   22.1812   -2.1062 C.3     1  UNL1       -0.0308
     12 C          -3.6073   15.6251   -0.0025 C.3     1  UNL1       -0.0308
     13 C           5.7235   24.5789   -1.7641 C.3     1  UNL1       -0.0308
     14 C          -0.4124   21.9924   -1.9068 C.2     1  UNL1       -0.0762
     15 C           9.1199   26.1764   -0.6480 C.3     1  UNL1       -0.0286
     16 C          -2.1080   17.3068   -1.1785 C.2     1  UNL1       -0.0762
     17 C          -3.9745   10.6756    2.9007 C.3     1  UNL1       -0.0286
     18 C           4.2168   23.1166   -3.2139 C.2     1  UNL1       -0.0762
     19 C          -4.0400   11.0335    1.4120 C.3     1  UNL1       -0.0308
     20 C          -3.5108   13.0697    0.0059 C.2     1  UNL1       -0.0762
     21 C           8.9616   27.4208   -1.5264 C.3     1  UNL1       -0.0308
     22 C           7.9954   25.1731   -0.8062 C.2     1  UNL1       -0.0762
     23 C          -0.3009   20.6498   -1.8637 C.2     1  UNL1       -0.0847
     24 C           3.3156   23.0920   -2.2131 C.2     1  UNL1       -0.0847
     25 C          -2.7340   16.8484   -0.0756 C.2     1  UNL1       -0.0847
     26 C          -4.4146    9.2642    3.2415 C.2     1  UNL1       -0.0762
     27 C           6.9881   25.3597   -1.6820 C.2     1  UNL1       -0.0847
     28 C          -3.5258   12.4260    1.1887 C.2     1  UNL1       -0.0847
     29 C          -5.8631    7.7472    4.6913 C.3     1  UNL1       -0.0308
     30 C          11.1416   30.6554   -1.1328 C.3     1  UNL1       -0.0286
     31 C          -7.3871    7.6221    4.8541 C.3     1  UNL1       -0.0286
     32 C           9.9881   29.6779   -0.9988 C.2     1  UNL1       -0.0762
     33 C          10.0820   28.3930   -1.3950 C.2     1  UNL1       -0.0847
     34 C          12.3882   30.0601   -1.7961 C.3     1  UNL1       -0.0308
     35 C          -5.4384    9.0603    4.1117 C.2     1  UNL1       -0.0847
     36 C          -7.7899    6.3444    5.5810 C.2     1  UNL1       -0.0762
     37 C          -1.7436   22.6899   -1.9082 C.3     1  UNL1       -0.0438
     38 C          -2.3015   16.6912   -2.5394 C.3     1  UNL1       -0.0438
     39 C           4.0372   22.3468   -4.4933 C.3     1  UNL1       -0.0438
     40 C          -4.0976   12.4984   -1.2541 C.3     1  UNL1       -0.0438
     41 C           8.0537   23.9836    0.1147 C.3     1  UNL1       -0.0438
     42 C          13.5253   31.0184   -1.9048 C.2     1  UNL1       -0.0847
     43 C          14.1093   31.4392   -3.0426 C.2     1  UNL1       -0.0762
     44 C          -3.5846    8.1438    2.6854 C.3     1  UNL1       -0.0438
     45 C          -8.7785    5.2066    7.6232 C.3     1  UNL1       -0.0308
     46 C          -8.4216    6.3949    6.7705 C.2     1  UNL1       -0.0847
     47 C          15.3910   32.2503   -3.0535 C.3     1  UNL1       -0.0286
     48 C           8.7174   30.2607   -0.4361 C.3     1  UNL1       -0.0438
     49 C          -9.6062    5.6206    8.8534 C.3     1  UNL1       -0.0285
     50 C          -7.4343    5.0534    4.8930 C.3     1  UNL1       -0.0438
     51 C          16.0170   32.5395   -1.6783 C.3     1  UNL1       -0.0308
     52 C          -9.8671    4.4794    9.8262 C.2     1  UNL1       -0.0741
     53 C          13.5524   31.1035   -4.4038 C.3     1  UNL1       -0.0438
     54 C          17.2887   33.3225   -1.8102 C.2     1  UNL1       -0.0850
     55 C         -10.6569    3.3182    9.2801 C.3     1  UNL1       -0.0437
     56 C          -9.4046    4.5287   11.0955 C.2     1  UNL1       -0.0591
     57 C          17.5487   34.5120   -1.2357 C.2     1  UNL1       -0.0796
     58 C          -9.5476    3.4580   12.1372 C.3     1  UNL1        0.0775
     59 C          18.8417   35.2211   -1.5034 C.3     1  UNL1       -0.0440
     60 C          16.5860   35.2159   -0.3178 C.3     1  UNL1       -0.0440
     61 H           0.6721   23.5226   -2.9279 H       1  UNL1        0.0313
     62 H           0.8023   23.5993   -1.1699 H       1  UNL1        0.0313
     63 H          -0.9467   18.7178   -0.0215 H       1  UNL1        0.0313
     64 H          -0.1095   17.9910   -1.3770 H       1  UNL1        0.0313
     65 H           6.3500   23.2052   -3.2954 H       1  UNL1        0.0313
     66 H           5.5451   24.6467   -3.9212 H       1  UNL1        0.0313
     67 H          -1.9377   14.3975    0.6045 H       1  UNL1        0.0313
     68 H          -2.2375   14.3398   -1.1046 H       1  UNL1        0.0313
     69 H          -1.5053   19.3594   -2.9671 H       1  UNL1        0.0310
     70 H          -2.3691   20.0628   -1.5997 H       1  UNL1        0.0310
     71 H           2.2908   21.6005   -1.1861 H       1  UNL1        0.0310
     72 H           2.1340   21.4659   -2.9344 H       1  UNL1        0.0310
     73 H          -4.4008   15.6635   -0.7564 H       1  UNL1        0.0310
     74 H          -4.1096   15.6252    0.9737 H       1  UNL1        0.0310
     75 H           4.9141   25.3019   -1.5939 H       1  UNL1        0.0310
     76 H           5.6685   23.8428   -0.9560 H       1  UNL1        0.0310
     77 H           9.1565   26.4896    0.4039 H       1  UNL1        0.0313
     78 H          10.0736   25.6813   -0.8701 H       1  UNL1        0.0313
     79 H          -4.5770   11.4047    3.4599 H       1  UNL1        0.0313
     80 H          -2.9440   10.8014    3.2637 H       1  UNL1        0.0313
     81 H          -3.4061   10.3506    0.8359 H       1  UNL1        0.0310
     82 H          -5.0680   10.9339    1.0470 H       1  UNL1        0.0310
     83 H           8.9533   27.1189   -2.5827 H       1  UNL1        0.0310
     84 H           8.0014   27.9072   -1.3278 H       1  UNL1        0.0310
     85 H           0.6869   20.1959   -1.8688 H       1  UNL1        0.0572
     86 H           3.4591   23.6889   -1.3157 H       1  UNL1        0.0572
     87 H          -2.5359   17.3272    0.8826 H       1  UNL1        0.0572
     88 H           6.9849   26.2109   -2.3561 H       1  UNL1        0.0572
     89 H          -3.0501   12.9124    2.0402 H       1  UNL1        0.0572
     90 H          -5.3965    7.6663    5.6817 H       1  UNL1        0.0310
     91 H          -5.4875    6.9087    4.0964 H       1  UNL1        0.0310
     92 H          10.7978   31.5104   -1.7299 H       1  UNL1        0.0313
     93 H          11.3995   31.0392   -0.1377 H       1  UNL1        0.0313
     94 H          -7.8760    7.6483    3.8718 H       1  UNL1        0.0313
     95 H          -7.7599    8.4970    5.4035 H       1  UNL1        0.0313
     96 H          11.0162   27.9889   -1.7746 H       1  UNL1        0.0572
     97 H          12.7547   29.2192   -1.1930 H       1  UNL1        0.0310
     98 H          12.1291   29.6511   -2.7792 H       1  UNL1        0.0310
     99 H          -5.9608    9.9388    4.4871 H       1  UNL1        0.0572
    100 H          -2.2136   22.6046   -2.8927 H       1  UNL1        0.0274
    101 H          -2.4126   22.2704   -1.1503 H       1  UNL1        0.0274
    102 H          -1.6341   23.7541   -1.6746 H       1  UNL1        0.0274
    103 H          -1.6936   15.7886   -2.6444 H       1  UNL1        0.0274
    104 H          -3.3527   16.4436   -2.7168 H       1  UNL1        0.0274
    105 H          -2.0032   17.3629   -3.3474 H       1  UNL1        0.0274
    106 H           4.3084   21.2968   -4.3504 H       1  UNL1        0.0274
    107 H           3.0028   22.4078   -4.8492 H       1  UNL1        0.0274
    108 H           4.6641   22.7555   -5.2929 H       1  UNL1        0.0274
    109 H          -3.4285   11.7384   -1.6711 H       1  UNL1        0.0274
    110 H          -5.0788   12.0500   -1.0739 H       1  UNL1        0.0274
    111 H          -4.2367   13.2749   -2.0142 H       1  UNL1        0.0274
    112 H           7.3799   24.1226    0.9657 H       1  UNL1        0.0274
    113 H           7.7830   23.0621   -0.4120 H       1  UNL1        0.0274
    114 H           9.0665   23.8343    0.5037 H       1  UNL1        0.0274
    115 H          13.9439   31.2983   -0.9422 H       1  UNL1        0.0572
    116 H          -2.8976    7.7572    3.4522 H       1  UNL1        0.0274
    117 H          -4.2138    7.3255    2.3186 H       1  UNL1        0.0274
    118 H          -2.9666    8.4650    1.8426 H       1  UNL1        0.0274
    119 H          -7.8497    4.7304    7.9617 H       1  UNL1        0.0310
    120 H          -9.3373    4.4733    7.0310 H       1  UNL1        0.0310
    121 H          -8.6628    7.3725    7.1838 H       1  UNL1        0.0572
    122 H          16.1239   31.7015   -3.6611 H       1  UNL1        0.0313
    123 H          15.1970   33.2002   -3.5681 H       1  UNL1        0.0313
    124 H           8.0123   30.4959   -1.2390 H       1  UNL1        0.0274
    125 H           8.2420   29.5660    0.2666 H       1  UNL1        0.0274
    126 H           8.9168   31.1800    0.1237 H       1  UNL1        0.0274
    127 H         -10.5698    6.0360    8.5310 H       1  UNL1        0.0313
    128 H          -9.0842    6.4348    9.3742 H       1  UNL1        0.0313
    129 H          -6.5450    4.6088    5.3503 H       1  UNL1        0.0274
    130 H          -8.2583    4.3347    4.9398 H       1  UNL1        0.0274
    131 H          -7.2244    5.2154    3.8299 H       1  UNL1        0.0274
    132 H          15.2912   33.0755   -1.0570 H       1  UNL1        0.0310
    133 H          16.2487   31.5972   -1.1659 H       1  UNL1        0.0310
    134 H          13.8111   30.0778   -4.6852 H       1  UNL1        0.0274
    135 H          12.4633   31.2179   -4.4287 H       1  UNL1        0.0274
    136 H          13.9515   31.7744   -5.1722 H       1  UNL1        0.0274
    137 H          18.0455   32.8574   -2.4403 H       1  UNL1        0.0572
    138 H          -9.9921    2.4725    9.0756 H       1  UNL1        0.0274
    139 H         -11.4367    2.9996    9.9784 H       1  UNL1        0.0274
    140 H         -11.1654    3.5824    8.3474 H       1  UNL1        0.0274
    141 H          -8.8331    5.4004   11.4135 H       1  UNL1        0.0594
    142 H          -8.6279    2.8648   12.1597 H       1  UNL1        0.0610
    143 H         -10.3900    2.7906   11.9397 H       1  UNL1        0.0610
    144 H          18.6429   36.2135   -1.9206 H       1  UNL1        0.0274
    145 H          19.4147   35.3329   -0.5786 H       1  UNL1        0.0274
    146 H          19.4644   34.6804   -2.2241 H       1  UNL1        0.0274
    147 H          15.6536   35.4556   -0.8392 H       1  UNL1        0.0274
    148 H          16.3593   34.5982    0.5581 H       1  UNL1        0.0274
    149 H          17.0070   36.1571    0.0504 H       1  UNL1        0.0274
    150 H         -11.0031    4.1057   16.1016 H       1  UNL1        0.2220
    151 H          -7.5317    2.4095   14.8828 H       1  UNL1        0.2220
@<TRIPOS>BOND
     1     1     2    1
     2     1     3    1
     3     1     4    1
     4     1     5    2
     5     2    58    1
     6     3   150    1
     7     4   151    1
     8     6    11    1
     9     6    14    1
    10     6    61    1
    11     6    62    1
    12     7    10    1
    13     7    16    1
    14     7    63    1
    15     7    64    1
    16     8    13    1
    17     8    18    1
    18     8    65    1
    19     8    66    1
    20     9    12    1
    21     9    20    1
    22     9    67    1
    23     9    68    1
    24    10    23    1
    25    10    69    1
    26    10    70    1
    27    11    24    1
    28    11    71    1
    29    11    72    1
    30    12    25    1
    31    12    73    1
    32    12    74    1
    33    13    27    1
    34    13    75    1
    35    13    76    1
    36    14    23    2
    37    14    37    1
    38    15    21    1
    39    15    22    1
    40    15    77    1
    41    15    78    1
    42    16    25    2
    43    16    38    1
    44    17    19    1
    45    17    26    1
    46    17    79    1
    47    17    80    1
    48    18    24    2
    49    18    39    1
    50    19    28    1
    51    19    81    1
    52    19    82    1
    53    20    28    2
    54    20    40    1
    55    21    33    1
    56    21    83    1
    57    21    84    1
    58    22    27    2
    59    22    41    1
    60    23    85    1
    61    24    86    1
    62    25    87    1
    63    26    35    2
    64    26    44    1
    65    27    88    1
    66    28    89    1
    67    29    31    1
    68    29    35    1
    69    29    90    1
    70    29    91    1
    71    30    32    1
    72    30    34    1
    73    30    92    1
    74    30    93    1
    75    31    36    1
    76    31    94    1
    77    31    95    1
    78    32    33    2
    79    32    48    1
    80    33    96    1
    81    34    42    1
    82    34    97    1
    83    34    98    1
    84    35    99    1
    85    36    46    2
    86    36    50    1
    87    37   100    1
    88    37   101    1
    89    37   102    1
    90    38   103    1
    91    38   104    1
    92    38   105    1
    93    39   106    1
    94    39   107    1
    95    39   108    1
    96    40   109    1
    97    40   110    1
    98    40   111    1
    99    41   112    1
   100    41   113    1
   101    41   114    1
   102    42    43    2
   103    42   115    1
   104    43    47    1
   105    43    53    1
   106    44   116    1
   107    44   117    1
   108    44   118    1
   109    45    46    1
   110    45    49    1
   111    45   119    1
   112    45   120    1
   113    46   121    1
   114    47    51    1
   115    47   122    1
   116    47   123    1
   117    48   124    1
   118    48   125    1
   119    48   126    1
   120    49    52    1
   121    49   127    1
   122    49   128    1
   123    50   129    1
   124    50   130    1
   125    50   131    1
   126    51    54    1
   127    51   132    1
   128    51   133    1
   129    52    55    1
   130    52    56    2
   131    53   134    1
   132    53   135    1
   133    53   136    1
   134    54    57    2
   135    54   137    1
   136    55   138    1
   137    55   139    1
   138    55   140    1
   139    56    58    1
   140    56   141    1
   141    57    59    1
   142    57    60    1
   143    58   142    1
   144    58   143    1
   145    59   144    1
   146    59   145    1
   147    59   146    1
   148    60   147    1
   149    60   148    1
   150    60   149    1
