@<TRIPOS>MOLECULE
farnesol
 42 41 0 0 0
SMALL
GASTEIGER

@<TRIPOS>ATOM
      1 O           3.3039   -2.8119    0.6680 O.3     1  UNL1       -0.3910
      2 C          -1.3102   -0.4163    1.2697 C.3     1  UNL1       -0.0286
      3 C           1.1791    1.9386   -0.7463 C.3     1  UNL1       -0.0308
      4 C          -0.4788    0.7735    0.8372 C.2     1  UNL1       -0.0762
      5 C           2.5974    1.7948   -0.1828 C.3     1  UNL1       -0.0285
      6 C          -2.7957   -0.0984    1.4906 C.3     1  UNL1       -0.0308
      7 C           0.2875    0.8252   -0.2701 C.2     1  UNL1       -0.0847
      8 C           3.2116    0.4556   -0.5272 C.2     1  UNL1       -0.0741
      9 C          -0.5034    1.9502    1.7812 C.3     1  UNL1       -0.0438
     10 C          -3.5049    0.2856    0.2218 C.2     1  UNL1       -0.0850
     11 C          -4.1244   -0.5181   -0.6632 C.2     1  UNL1       -0.0796
     12 C           3.3882    0.1917   -1.9997 C.3     1  UNL1       -0.0437
     13 C           3.5697   -0.4755    0.3778 C.2     1  UNL1       -0.0600
     14 C           4.1566   -1.8228    0.1044 C.3     1  UNL1        0.0626
     15 C          -4.8164   -0.0644   -1.9168 C.3     1  UNL1       -0.0440
     16 C          -4.1601   -2.0078   -0.4446 C.3     1  UNL1       -0.0440
     17 H          -1.2111   -1.2307    0.5408 H       1  UNL1        0.0313
     18 H          -0.8922   -0.7991    2.2096 H       1  UNL1        0.0313
     19 H           1.1929    1.9297   -1.8431 H       1  UNL1        0.0310
     20 H           0.7706    2.9178   -0.4729 H       1  UNL1        0.0310
     21 H           3.2314    2.5959   -0.5821 H       1  UNL1        0.0313
     22 H           2.5794    1.9337    0.9056 H       1  UNL1        0.0313
     23 H          -3.2824   -0.9619    1.9579 H       1  UNL1        0.0310
     24 H          -2.9185    0.7129    2.2182 H       1  UNL1        0.0310
     25 H           0.2848   -0.0556   -0.9120 H       1  UNL1        0.0572
     26 H           0.3325    2.6417    1.6512 H       1  UNL1        0.0274
     27 H          -0.4482    1.6010    2.8184 H       1  UNL1        0.0274
     28 H          -1.4310    2.5184    1.6584 H       1  UNL1        0.0274
     29 H          -3.4986    1.3535    0.0067 H       1  UNL1        0.0572
     30 H           4.2906   -0.3843   -2.2230 H       1  UNL1        0.0274
     31 H           3.5021    1.1339   -2.5481 H       1  UNL1        0.0274
     32 H           2.5173   -0.3323   -2.4056 H       1  UNL1        0.0274
     33 H           3.4221   -0.2402    1.4308 H       1  UNL1        0.0594
     34 H           5.1434   -1.9075    0.5702 H       1  UNL1        0.0601
     35 H           4.2637   -2.0594   -0.9549 H       1  UNL1        0.0601
     36 H          -5.8711   -0.3570   -1.8980 H       1  UNL1        0.0274
     37 H          -4.7729    1.0240   -2.0282 H       1  UNL1        0.0274
     38 H          -4.3439   -0.5100   -2.7979 H       1  UNL1        0.0274
     39 H          -3.8145   -2.5239   -1.3475 H       1  UNL1        0.0274
     40 H          -5.1866   -2.3303   -0.2410 H       1  UNL1        0.0274
     41 H          -3.5294   -2.3629    0.3729 H       1  UNL1        0.0274
     42 H           3.2782   -2.6700    1.6299 H       1  UNL1        0.2098
@<TRIPOS>BOND
     1     1    14    1
     2     1    42    1
     3     2     4    1
     4     2     6    1
     5     2    17    1
     6     2    18    1
     7     3     5    1
     8     3     7    1
     9     3    19    1
    10     3    20    1
    11     4     7    2
    12     4     9    1
    13     5     8    1
    14     5    21    1
    15     5    22    1
    16     6    10    1
    17     6    23    1
    18     6    24    1
    19     7    25    1
    20     8    12    1
    21     8    13    2
    22     9    26    1
    23     9    27    1
    24     9    28    1
    25    10    11    2
    26    10    29    1
    27    11    15    1
    28    11    16    1
    29    12    30    1
    30    12    31    1
    31    12    32    1
    32    13    14    1
    33    13    33    1
    34    14    34    1
    35    14    35    1
    36    15    36    1
    37    15    37    1
    38    15    38    1
    39    16    39    1
    40    16    40    1
    41    16    41    1
