@<TRIPOS>MOLECULE
fpp_farnesyl_pyrophosphate
 52 51 0 0 0
SMALL
GASTEIGER

@<TRIPOS>ATOM
      1 P           2.6343   -1.3772   -0.2394 P.3     1  UNL1        0.4837
      2 P           4.6647    0.5375    0.6905 P.3     1  UNL1        0.4808
      3 O           1.4256   -0.3092   -0.1443 O.3     1  UNL1       -0.2823
      4 O           3.9693   -0.4736   -0.3610 O.3     1  UNL1       -0.1862
      5 O           2.4891   -2.0244   -1.7150 O.3     1  UNL1       -0.3022
      6 O           2.6703   -2.3812    0.8761 O.2     1  UNL1       -0.2269
      7 O           5.1546   -0.4402    1.8806 O.3     1  UNL1       -0.3023
      8 O           6.0404    0.9489   -0.0514 O.3     1  UNL1       -0.3023
      9 O           3.8006    1.6866    1.1191 O.2     1  UNL1       -0.2271
     10 C          -2.9070    2.8989   -0.0099 C.3     1  UNL1       -0.0308
     11 C          -1.5263    3.3822   -0.4678 C.3     1  UNL1       -0.0285
     12 C          -3.4811   -0.3636    2.1882 C.3     1  UNL1       -0.0286
     13 C          -3.6533    0.7325    1.1573 C.2     1  UNL1       -0.0762
     14 C          -2.7911    1.7471    0.9499 C.2     1  UNL1       -0.0847
     15 C          -3.5330   -1.7847    1.6098 C.3     1  UNL1       -0.0308
     16 C          -0.7131    2.2685   -1.0904 C.2     1  UNL1       -0.0741
     17 C          -4.9328    0.6678    0.3603 C.3     1  UNL1       -0.0438
     18 C          -2.3785   -2.0844    0.6946 C.2     1  UNL1       -0.0850
     19 C           0.4488    1.8020   -0.5939 C.2     1  UNL1       -0.0591
     20 C          -1.3056    1.6617   -2.3353 C.3     1  UNL1       -0.0437
     21 C          -2.4143   -2.4478   -0.6015 C.2     1  UNL1       -0.0796
     22 C           1.2862    0.6926   -1.1442 C.3     1  UNL1        0.0775
     23 C          -3.7325   -2.6068   -1.3120 C.3     1  UNL1       -0.0440
     24 C          -1.2153   -2.7331   -1.4601 C.3     1  UNL1       -0.0440
     25 H          -3.5089    2.6337   -0.8853 H       1  UNL1        0.0310
     26 H          -3.4134    3.7289    0.4967 H       1  UNL1        0.0310
     27 H          -0.9877    3.8113    0.3874 H       1  UNL1        0.0313
     28 H          -1.6442    4.1961   -1.1935 H       1  UNL1        0.0313
     29 H          -2.5353   -0.2260    2.7285 H       1  UNL1        0.0313
     30 H          -4.2753   -0.2599    2.9386 H       1  UNL1        0.0313
     31 H          -1.9157    1.7741    1.5992 H       1  UNL1        0.0572
     32 H          -3.4666   -2.4898    2.4489 H       1  UNL1        0.0310
     33 H          -4.5137   -1.9625    1.1674 H       1  UNL1        0.0310
     34 H          -5.7533    0.3001    0.9867 H       1  UNL1        0.0274
     35 H          -5.2571    1.6436   -0.0123 H       1  UNL1        0.0274
     36 H          -4.8219   -0.0067   -0.4925 H       1  UNL1        0.0274
     37 H          -1.3969   -1.9939    1.1590 H       1  UNL1        0.0572
     38 H           0.8379    2.2686    0.3096 H       1  UNL1        0.0594
     39 H          -1.9313    2.3938   -2.8587 H       1  UNL1        0.0274
     40 H          -0.5492    1.3549   -3.0628 H       1  UNL1        0.0274
     41 H          -1.9327    0.8006   -2.0832 H       1  UNL1        0.0274
     42 H           0.8627    0.2137   -2.0282 H       1  UNL1        0.0610
     43 H           2.2680    1.0931   -1.4148 H       1  UNL1        0.0610
     44 H          -3.7528   -3.5698   -1.8355 H       1  UNL1        0.0274
     45 H          -4.6194   -2.5930   -0.6803 H       1  UNL1        0.0274
     46 H          -3.8440   -1.8170   -2.0629 H       1  UNL1        0.0274
     47 H          -0.2846   -2.6285   -0.8939 H       1  UNL1        0.0274
     48 H          -1.1753   -2.0368   -2.3037 H       1  UNL1        0.0274
     49 H          -1.2546   -3.7557   -1.8486 H       1  UNL1        0.0274
     50 H           3.0382   -2.8031   -1.9475 H       1  UNL1        0.2220
     51 H           5.5444   -0.0454    2.6896 H       1  UNL1        0.2220
     52 H           6.6124    1.6344    0.3548 H       1  UNL1        0.2220
@<TRIPOS>BOND
     1     1     3    1
     2     1     4    1
     3     1     5    1
     4     1     6    2
     5     2     4    1
     6     2     7    1
     7     2     8    1
     8     2     9    2
     9     3    22    1
    10     5    50    1
    11     7    51    1
    12     8    52    1
    13    10    11    1
    14    10    14    1
    15    10    25    1
    16    10    26    1
    17    11    16    1
    18    11    27    1
    19    11    28    1
    20    12    13    1
    21    12    15    1
    22    12    29    1
    23    12    30    1
    24    13    14    2
    25    13    17    1
    26    14    31    1
    27    15    18    1
    28    15    32    1
    29    15    33    1
    30    16    19    2
    31    16    20    1
    32    17    34    1
    33    17    35    1
    34    17    36    1
    35    18    21    2
    36    18    37    1
    37    19    22    1
    38    19    38    1
    39    20    39    1
    40    20    40    1
    41    20    41    1
    42    21    23    1
    43    21    24    1
    44    22    42    1
    45    22    43    1
    46    23    44    1
    47    23    45    1
    48    23    46    1
    49    24    47    1
    50    24    48    1
    51    24    49    1
