@<TRIPOS>MOLECULE
geraniol
 29 28 0 0 0
SMALL
GASTEIGER

@<TRIPOS>ATOM
      1 O           4.2204   -1.7134   -0.1687 O.3     1  UNL1       -0.3910
      2 C           0.0505    0.6359    0.6315 C.3     1  UNL1       -0.0285
      3 C          -0.9380    0.7573   -0.5357 C.3     1  UNL1       -0.0308
      4 C           1.5036    0.6658    0.2060 C.2     1  UNL1       -0.0741
      5 C          -2.3721    0.7110   -0.0860 C.2     1  UNL1       -0.0850
      6 C          -3.1967   -0.3525   -0.0459 C.2     1  UNL1       -0.0796
      7 C           1.9487    1.9407   -0.4639 C.3     1  UNL1       -0.0437
      8 C           2.3869   -0.3304    0.4126 C.2     1  UNL1       -0.0600
      9 C          -4.6158   -0.1965    0.4324 C.3     1  UNL1       -0.0440
     10 C          -2.8258   -1.7551   -0.4351 C.3     1  UNL1       -0.0440
     11 C           3.8383   -0.3625    0.0528 C.3     1  UNL1        0.0626
     12 H          -0.1211    1.4494    1.3486 H       1  UNL1        0.0313
     13 H          -0.1534   -0.2950    1.1772 H       1  UNL1        0.0313
     14 H          -0.7375   -0.0230   -1.2788 H       1  UNL1        0.0310
     15 H          -0.7884    1.7082   -1.0622 H       1  UNL1        0.0310
     16 H          -2.7618    1.6728    0.2458 H       1  UNL1        0.0572
     17 H           1.5131    2.8068    0.0468 H       1  UNL1        0.0274
     18 H           1.6202    1.9571   -1.5079 H       1  UNL1        0.0274
     19 H           3.0314    2.0908   -0.4436 H       1  UNL1        0.0274
     20 H           2.0179   -1.2125    0.9354 H       1  UNL1        0.0594
     21 H          -4.7895   -0.8207    1.3152 H       1  UNL1        0.0274
     22 H          -4.8543    0.8370    0.7048 H       1  UNL1        0.0274
     23 H          -5.3153   -0.5020   -0.3527 H       1  UNL1        0.0274
     24 H          -3.4147   -2.0746   -1.3011 H       1  UNL1        0.0274
     25 H          -1.7688   -1.8643   -0.6903 H       1  UNL1        0.0274
     26 H          -3.0285   -2.4424    0.3932 H       1  UNL1        0.0274
     27 H           4.4500    0.0386    0.8663 H       1  UNL1        0.0601
     28 H           4.0531    0.1869   -0.8668 H       1  UNL1        0.0601
     29 H           4.1513   -2.1849    0.6792 H       1  UNL1        0.2098
@<TRIPOS>BOND
     1     1    11    1
     2     1    29    1
     3     2     3    1
     4     2     4    1
     5     2    12    1
     6     2    13    1
     7     3     5    1
     8     3    14    1
     9     3    15    1
    10     4     7    1
    11     4     8    2
    12     5     6    2
    13     5    16    1
    14     6     9    1
    15     6    10    1
    16     7    17    1
    17     7    18    1
    18     7    19    1
    19     8    11    1
    20     8    20    1
    21     9    21    1
    22     9    22    1
    23     9    23    1
    24    10    24    1
    25    10    25    1
    26    10    26    1
    27    11    27    1
    28    11    28    1
