@<TRIPOS>MOLECULE
ggpp_geranylgeranyl_pyrophosphate
 65 64 0 0 0
SMALL
GASTEIGER

@<TRIPOS>ATOM
      1 P          -3.1089    1.7543   -1.1123 P.3     1  UNL1        0.4837
      2 P          -3.2895    1.2484    1.7800 P.3     1  UNL1        0.4808
      3 O          -1.5651    2.2257   -1.0444 O.3     1  UNL1       -0.2823
      4 O          -3.3198    0.8532    0.2133 O.3     1  UNL1       -0.1862
      5 O          -3.1494    0.6672   -2.3097 O.3     1  UNL1       -0.3022
      6 O          -4.0984    2.8738   -1.2589 O.2     1  UNL1       -0.2269
      7 O          -4.5772    2.2108    1.9472 O.3     1  UNL1       -0.3023
      8 O          -3.7422   -0.1196    2.5120 O.3     1  UNL1       -0.3023
      9 O          -1.9897    1.8280    2.2544 O.2     1  UNL1       -0.2271
     10 C           5.0165   -1.2353   -0.0421 C.3     1  UNL1       -0.0286
     11 C           4.2371   -2.1783    0.8852 C.3     1  UNL1       -0.0308
     12 C           4.8345    0.2369    0.2625 C.2     1  UNL1       -0.0762
     13 C           4.1587    2.6238   -0.3812 C.3     1  UNL1       -0.0308
     14 C           1.8535   -2.5519    0.0355 C.2     1  UNL1       -0.0762
     15 C           0.3748   -2.2284    0.0108 C.3     1  UNL1       -0.0286
     16 C           2.9234    3.1498   -1.1225 C.3     1  UNL1       -0.0285
     17 C           2.7508   -1.9480    0.8393 C.2     1  UNL1       -0.0847
     18 C           4.3233    1.1440   -0.5929 C.2     1  UNL1       -0.0847
     19 C          -0.5388   -3.3853    0.4423 C.3     1  UNL1       -0.0308
     20 C           1.6439    2.5401   -0.5962 C.2     1  UNL1       -0.0741
     21 C           5.3246    0.6757    1.6192 C.3     1  UNL1       -0.0438
     22 C           2.3060   -3.5880   -0.9598 C.3     1  UNL1       -0.0438
     23 C          -1.9924   -3.0038    0.4913 C.2     1  UNL1       -0.0850
     24 C           0.7559    1.8665   -1.3524 C.2     1  UNL1       -0.0591
     25 C           1.3908    2.7489    0.8726 C.3     1  UNL1       -0.0437
     26 C          -2.9310   -3.1654   -0.4609 C.2     1  UNL1       -0.0796
     27 C          -0.5344    1.2555   -0.9059 C.3     1  UNL1        0.0775
     28 C          -4.3470   -2.7149   -0.2139 C.3     1  UNL1       -0.0440
     29 C          -2.7102   -3.7834   -1.8122 C.3     1  UNL1       -0.0440
     30 H           6.0851   -1.4760    0.0263 H       1  UNL1        0.0313
     31 H           4.7310   -1.4370   -1.0826 H       1  UNL1        0.0313
     32 H           4.4844   -3.2174    0.6410 H       1  UNL1        0.0310
     33 H           4.5701   -2.0478    1.9226 H       1  UNL1        0.0310
     34 H           4.0996    2.8908    0.6779 H       1  UNL1        0.0310
     35 H           5.0420    3.1278   -0.7918 H       1  UNL1        0.0310
     36 H           0.1044   -1.9044   -1.0023 H       1  UNL1        0.0313
     37 H           0.1813   -1.3685    0.6650 H       1  UNL1        0.0313
     38 H           2.8709    4.2393   -1.0043 H       1  UNL1        0.0313
     39 H           3.0259    2.9624   -2.1992 H       1  UNL1        0.0313
     40 H           2.3830   -1.1877    1.5269 H       1  UNL1        0.0572
     41 H           4.0342    0.7792   -1.5783 H       1  UNL1        0.0572
     42 H          -0.3942   -4.2481   -0.2172 H       1  UNL1        0.0310
     43 H          -0.2459   -3.7308    1.4423 H       1  UNL1        0.0310
     44 H           6.2291    0.1205    1.8926 H       1  UNL1        0.0274
     45 H           5.6002    1.7325    1.6641 H       1  UNL1        0.0274
     46 H           4.5624    0.4810    2.3802 H       1  UNL1        0.0274
     47 H           1.8085   -3.4245   -1.9226 H       1  UNL1        0.0274
     48 H           3.3780   -3.5713   -1.1691 H       1  UNL1        0.0274
     49 H           2.0432   -4.5905   -0.6074 H       1  UNL1        0.0274
     50 H          -2.2895   -2.5263    1.4244 H       1  UNL1        0.0572
     51 H           0.9706    1.7594   -2.4144 H       1  UNL1        0.0594
     52 H           0.3318    2.7042    1.1362 H       1  UNL1        0.0274
     53 H           1.7316    3.7440    1.1803 H       1  UNL1        0.0274
     54 H           1.9266    2.0020    1.4667 H       1  UNL1        0.0274
     55 H          -0.7493    0.3847   -1.5330 H       1  UNL1        0.0610
     56 H          -0.4963    0.9095    0.1296 H       1  UNL1        0.0610
     57 H          -4.6285   -1.9399   -0.9344 H       1  UNL1        0.0274
     58 H          -5.0372   -3.5580   -0.3216 H       1  UNL1        0.0274
     59 H          -4.4859   -2.3015    0.7901 H       1  UNL1        0.0274
     60 H          -3.2963   -4.7031   -1.9082 H       1  UNL1        0.0274
     61 H          -1.6629   -4.0323   -2.0015 H       1  UNL1        0.0274
     62 H          -3.0232   -3.0892   -2.5994 H       1  UNL1        0.0274
     63 H          -4.0185    0.3334   -2.6183 H       1  UNL1        0.2220
     64 H          -4.7320    2.6514    2.8097 H       1  UNL1        0.2220
     65 H          -3.7185   -0.1648    3.4915 H       1  UNL1        0.2220
@<TRIPOS>BOND
     1     1     3    1
     2     1     4    1
     3     1     5    1
     4     1     6    2
     5     2     4    1
     6     2     7    1
     7     2     8    1
     8     2     9    2
     9     3    27    1
    10     5    63    1
    11     7    64    1
    12     8    65    1
    13    10    11    1
    14    10    12    1
    15    10    30    1
    16    10    31    1
    17    11    17    1
    18    11    32    1
    19    11    33    1
    20    12    18    2
    21    12    21    1
    22    13    16    1
    23    13    18    1
    24    13    34    1
    25    13    35    1
    26    14    15    1
    27    14    17    2
    28    14    22    1
    29    15    19    1
    30    15    36    1
    31    15    37    1
    32    16    20    1
    33    16    38    1
    34    16    39    1
    35    17    40    1
    36    18    41    1
    37    19    23    1
    38    19    42    1
    39    19    43    1
    40    20    24    2
    41    20    25    1
    42    21    44    1
    43    21    45    1
    44    21    46    1
    45    22    47    1
    46    22    48    1
    47    22    49    1
    48    23    26    2
    49    23    50    1
    50    24    27    1
    51    24    51    1
    52    25    52    1
    53    25    53    1
    54    25    54    1
    55    26    28    1
    56    26    29    1
    57    27    55    1
    58    27    56    1
    59    28    57    1
    60    28    58    1
    61    28    59    1
    62    29    60    1
    63    29    61    1
    64    29    62    1
