@<TRIPOS>MOLECULE
gpp_geranyl_pyrophosphate
 39 38 0 0 0
SMALL
GASTEIGER

@<TRIPOS>ATOM
      1 P           2.8634    0.9472    0.7991 P.3     1  UNL1        0.4837
      2 P           2.3461   -1.4485   -0.8277 P.3     1  UNL1        0.4808
      3 O           1.2776    1.2571    0.8278 O.3     1  UNL1       -0.2823
      4 O           3.0624   -0.0474   -0.4598 O.3     1  UNL1       -0.1862
      5 O           3.1117   -0.0158    2.0752 O.3     1  UNL1       -0.3022
      6 O           3.7387    2.1664    0.7641 O.2     1  UNL1       -0.2269
      7 O           2.8534   -2.4387    0.3446 O.3     1  UNL1       -0.3023
      8 O           3.1609   -1.9540   -2.1289 O.3     1  UNL1       -0.3023
      9 O           0.8576   -1.3655   -0.9954 O.2     1  UNL1       -0.2271
     10 C          -3.2781    1.9242   -0.3759 C.3     1  UNL1       -0.0285
     11 C          -4.0705    0.6197   -0.2190 C.3     1  UNL1       -0.0308
     12 C          -1.8174    1.7137   -0.7156 C.2     1  UNL1       -0.0741
     13 C          -3.5179   -0.2657    0.8635 C.2     1  UNL1       -0.0850
     14 C          -0.7833    2.1239    0.0445 C.2     1  UNL1       -0.0591
     15 C          -1.5588    1.0179   -2.0276 C.3     1  UNL1       -0.0437
     16 C          -3.1385   -1.5542    0.7706 C.2     1  UNL1       -0.0796
     17 C           0.6786    1.9828   -0.2374 C.3     1  UNL1        0.0775
     18 C          -2.6127   -2.2808    1.9799 C.3     1  UNL1       -0.0440
     19 C          -3.1732   -2.3824   -0.4821 C.3     1  UNL1       -0.0440
     20 H          -3.7417    2.5343   -1.1612 H       1  UNL1        0.0313
     21 H          -3.3645    2.5090    0.5495 H       1  UNL1        0.0313
     22 H          -4.1333    0.1137   -1.1854 H       1  UNL1        0.0310
     23 H          -5.1023    0.8758    0.0526 H       1  UNL1        0.0310
     24 H          -3.4467    0.2158    1.8386 H       1  UNL1        0.0572
     25 H          -1.0186    2.6345    0.9775 H       1  UNL1        0.0594
     26 H          -2.3590    1.2464   -2.7411 H       1  UNL1        0.0274
     27 H          -1.5349   -0.0667   -1.8882 H       1  UNL1        0.0274
     28 H          -0.6360    1.3353   -2.5184 H       1  UNL1        0.0274
     29 H           1.1331    2.9782   -0.2795 H       1  UNL1        0.0610
     30 H           0.9063    1.4709   -1.1725 H       1  UNL1        0.0610
     31 H          -1.5896   -2.6265    1.7984 H       1  UNL1        0.0274
     32 H          -2.5947   -1.6478    2.8734 H       1  UNL1        0.0274
     33 H          -3.2399   -3.1504    2.2020 H       1  UNL1        0.0274
     34 H          -3.8004   -3.2670   -0.3284 H       1  UNL1        0.0274
     35 H          -3.5675   -1.8554   -1.3522 H       1  UNL1        0.0274
     36 H          -2.1622   -2.7189   -0.7359 H       1  UNL1        0.0274
     37 H           3.1862    0.3875    2.9662 H       1  UNL1        0.2220
     38 H           2.4820   -3.3452    0.3944 H       1  UNL1        0.2220
     39 H           2.8571   -2.7619   -2.5951 H       1  UNL1        0.2220
@<TRIPOS>BOND
     1     1     3    1
     2     1     4    1
     3     1     5    1
     4     1     6    2
     5     2     4    1
     6     2     7    1
     7     2     8    1
     8     2     9    2
     9     3    17    1
    10     5    37    1
    11     7    38    1
    12     8    39    1
    13    10    11    1
    14    10    12    1
    15    10    20    1
    16    10    21    1
    17    11    13    1
    18    11    22    1
    19    11    23    1
    20    12    14    2
    21    12    15    1
    22    13    16    2
    23    13    24    1
    24    14    17    1
    25    14    25    1
    26    15    26    1
    27    15    27    1
    28    15    28    1
    29    16    18    1
    30    16    19    1
    31    17    29    1
    32    17    30    1
    33    18    31    1
    34    18    32    1
    35    18    33    1
    36    19    34    1
    37    19    35    1
    38    19    36    1
