@<TRIPOS>MOLECULE
ipp_isopentenyl_pyrophosphate
 26 25 0 0 0
SMALL
GASTEIGER

@<TRIPOS>ATOM
      1 P           0.6301    1.3431   -0.1150 P.3     1  UNL1        0.4834
      2 P           2.6469   -0.7956    0.0003 P.3     1  UNL1        0.4808
      3 O          -0.6066    0.3174   -0.2885 O.3     1  UNL1       -0.2861
      4 O           1.8008    0.4598    0.5656 O.3     1  UNL1       -0.1862
      5 O           0.1713    2.3336    1.0789 O.3     1  UNL1       -0.3022
      6 O           1.0432    2.0440   -1.3768 O.2     1  UNL1       -0.2269
      7 O           3.7424   -1.0517    1.1606 O.3     1  UNL1       -0.3023
      8 O           3.5132   -0.1506   -1.2022 O.3     1  UNL1       -0.3023
      9 O           1.8201   -1.9901   -0.3739 O.2     1  UNL1       -0.2271
     10 C          -2.2511   -1.2996    0.4125 C.3     1  UNL1       -0.0082
     11 C          -1.0889   -0.4065    0.8359 C.3     1  UNL1        0.0627
     12 C          -3.4331   -0.5266   -0.1275 C.2     1  UNL1       -0.0775
     13 C          -4.0799    0.4676    0.7938 C.3     1  UNL1       -0.0440
     14 C          -3.9083   -0.7448   -1.3638 C.2     1  UNL1       -0.0996
     15 H          -1.8902   -2.0064   -0.3456 H       1  UNL1        0.0332
     16 H          -2.5811   -1.8962    1.2714 H       1  UNL1        0.0332
     17 H          -0.2818   -1.0294    1.2337 H       1  UNL1        0.0569
     18 H          -1.3892    0.2932    1.6221 H       1  UNL1        0.0569
     19 H          -5.0099    0.8682    0.3762 H       1  UNL1        0.0274
     20 H          -4.3267   -0.0043    1.7504 H       1  UNL1        0.0274
     21 H          -3.4128    1.3144    0.9818 H       1  UNL1        0.0274
     22 H          -3.4507   -1.4727   -2.0253 H       1  UNL1        0.0534
     23 H          -4.7650   -0.1985   -1.7442 H       1  UNL1        0.0534
     24 H          -0.4440    3.0696    0.8742 H       1  UNL1        0.2220
     25 H           4.3343   -1.8309    1.0913 H       1  UNL1        0.2220
     26 H           4.0597   -0.7409   -1.7634 H       1  UNL1        0.2220
@<TRIPOS>BOND
     1     1     3    1
     2     1     4    1
     3     1     5    1
     4     1     6    2
     5     2     4    1
     6     2     7    1
     7     2     8    1
     8     2     9    2
     9     3    11    1
    10     5    24    1
    11     7    25    1
    12     8    26    1
    13    10    11    1
    14    10    12    1
    15    10    15    1
    16    10    16    1
    17    11    17    1
    18    11    18    1
    19    12    13    1
    20    12    14    2
    21    13    19    1
    22    13    20    1
    23    13    21    1
    24    14    22    1
    25    14    23    1
