@<TRIPOS>MOLECULE
isoprene
 13 12 0 0 0
SMALL
GASTEIGER

@<TRIPOS>ATOM
      1 C          -0.5185    0.0447   -0.0001 C.2     1  UNL1       -0.0581
      2 C          -0.6822   -1.4501    0.0000 C.3     1  UNL1       -0.0403
      3 C           0.8202    0.6168    0.0000 C.2     1  UNL1       -0.0665
      4 C          -1.5949    0.8486    0.0000 C.2     1  UNL1       -0.0958
      5 C           1.9754   -0.0600    0.0000 C.2     1  UNL1       -0.0985
      6 H          -0.2221   -1.8912   -0.8909 H       1  UNL1        0.0277
      7 H          -1.7370   -1.7472    0.0001 H       1  UNL1        0.0277
      8 H          -0.2221   -1.8911    0.8909 H       1  UNL1        0.0277
      9 H           0.8832    1.7038    0.0001 H       1  UNL1        0.0614
     10 H          -2.6016    0.4428    0.0000 H       1  UNL1        0.0537
     11 H          -1.5045    1.9305    0.0000 H       1  UNL1        0.0537
     12 H           2.9182    0.4777    0.0000 H       1  UNL1        0.0535
     13 H           2.0229   -1.1428   -0.0001 H       1  UNL1        0.0535
@<TRIPOS>BOND
     1     1     2    1
     2     1     3    1
     3     1     4    2
     4     2     6    1
     5     2     7    1
     6     2     8    1
     7     3     5    2
     8     3     9    1
     9     4    10    1
    10     4    11    1
    11     5    12    1
    12     5    13    1
