@<TRIPOS>MOLECULE
limonene
 26 26 0 0 0
SMALL
GASTEIGER

@<TRIPOS>ATOM
      1 C           0.7192   -0.0434   -0.3658 C.3     1  UNL1       -0.0167
      2 C           0.0421   -1.2082    0.3534 C.3     1  UNL1       -0.0426
      3 C           0.0383    1.2842   -0.0178 C.3     1  UNL1       -0.0280
      4 C          -1.4408   -1.2988   -0.0167 C.3     1  UNL1       -0.0315
      5 C          -2.1402    0.0377   -0.0377 C.2     1  UNL1       -0.0765
      6 C          -1.4599    1.1970   -0.0219 C.2     1  UNL1       -0.0845
      7 C           2.1674    0.0060    0.0127 C.2     1  UNL1       -0.0763
      8 C          -3.6392   -0.0018   -0.0797 C.3     1  UNL1       -0.0438
      9 C           3.1503   -0.1695   -1.1067 C.3     1  UNL1       -0.0438
     10 C           2.5629    0.1968    1.2801 C.2     1  UNL1       -0.0994
     11 H           0.6243   -0.2083   -1.4484 H       1  UNL1        0.0348
     12 H           0.1131   -1.0963    1.4436 H       1  UNL1        0.0274
     13 H           0.5319   -2.1584    0.1048 H       1  UNL1        0.0274
     14 H           0.3467    2.0435   -0.7479 H       1  UNL1        0.0313
     15 H           0.3327    1.6654    0.9672 H       1  UNL1        0.0313
     16 H          -1.9359   -1.9678    0.6974 H       1  UNL1        0.0310
     17 H          -1.5405   -1.7572   -1.0086 H       1  UNL1        0.0310
     18 H          -1.9997    2.1405   -0.0187 H       1  UNL1        0.0572
     19 H          -3.9790   -0.5416   -0.9696 H       1  UNL1        0.0274
     20 H          -4.0784    1.0009   -0.1102 H       1  UNL1        0.0274
     21 H          -4.0310   -0.5107    0.8069 H       1  UNL1        0.0274
     22 H           3.0066   -1.1416   -1.5896 H       1  UNL1        0.0274
     23 H           3.0161    0.6165   -1.8570 H       1  UNL1        0.0274
     24 H           4.1868   -0.1219   -0.7567 H       1  UNL1        0.0274
     25 H           3.6171    0.2302    1.5362 H       1  UNL1        0.0534
     26 H           1.8613    0.3225    2.0973 H       1  UNL1        0.0534
@<TRIPOS>BOND
     1     1     2    1
     2     1     3    1
     3     1     7    1
     4     1    11    1
     5     2     4    1
     6     2    12    1
     7     2    13    1
     8     3     6    1
     9     3    14    1
    10     3    15    1
    11     4     5    1
    12     4    16    1
    13     4    17    1
    14     5     6    2
    15     5     8    1
    16     6    18    1
    17     7     9    1
    18     7    10    2
    19     8    19    1
    20     8    20    1
    21     8    21    1
    22     9    22    1
    23     9    23    1
    24     9    24    1
    25    10    25    1
    26    10    26    1
