@<TRIPOS>MOLECULE
lutein
 98 99 0 0 0
SMALL
GASTEIGER

@<TRIPOS>ATOM
      1 O          14.2202   -2.1983   -0.9574 O.3     1  UNL1       -0.3877
      2 O         -15.0226    0.6331   -0.7855 O.3     1  UNL1       -0.3914
      3 C          11.9752    0.1614   -1.2392 C.3     1  UNL1       -0.0223
      4 C          11.1158    0.0269    0.0663 C.3     1  UNL1        0.0035
      5 C          12.1845   -1.2411   -1.8671 C.3     1  UNL1       -0.0172
      6 C          12.7962   -2.2639   -0.8989 C.3     1  UNL1        0.0741
      7 C          11.6367   -1.0671    0.9880 C.2     1  UNL1       -0.0668
      8 C         -11.4205   -0.0200   -1.7914 C.3     1  UNL1       -0.0076
      9 C          11.2955    1.0766   -2.2823 C.3     1  UNL1       -0.0589
     10 C          13.3384    0.8139   -0.9013 C.3     1  UNL1       -0.0589
     11 C         -12.8431    0.5990   -1.8093 C.3     1  UNL1       -0.0174
     12 C          12.3903   -2.0845    0.5333 C.2     1  UNL1       -0.0563
     13 C         -13.7374    0.0221   -0.7235 C.3     1  UNL1        0.0597
     14 C         -10.8597   -0.1143   -0.3529 C.2     1  UNL1       -0.0426
     15 C           9.6529   -0.2077   -0.2068 C.2     1  UNL1       -0.0762
     16 C         -13.1339    0.3016    0.6462 C.3     1  UNL1       -0.0053
     17 C         -11.6418    0.0594    0.7423 C.2     1  UNL1       -0.0665
     18 C         -10.5500    0.8840   -2.6980 C.3     1  UNL1       -0.0557
     19 C         -11.4806   -1.4322   -2.4172 C.3     1  UNL1       -0.0557
     20 C          11.2820   -0.9491    2.4445 C.3     1  UNL1       -0.0431
     21 C           8.6834    0.6429    0.1671 C.2     1  UNL1       -0.0622
     22 C          -9.4437   -0.4271   -0.2504 C.2     1  UNL1       -0.0579
     23 C         -11.1694    0.0369    2.1777 C.3     1  UNL1       -0.0431
     24 C           7.2430    0.4900   -0.0591 C.2     1  UNL1       -0.0507
     25 C          -8.9418   -1.2753    0.6590 C.2     1  UNL1       -0.0586
     26 C           6.7867   -0.7536   -0.7814 C.3     1  UNL1       -0.0397
     27 C          -7.5287   -1.5910    0.8024 C.2     1  UNL1       -0.0504
     28 C           6.4186    1.4592    0.3943 C.2     1  UNL1       -0.0588
     29 C          -7.2551   -3.0501    1.0554 C.3     1  UNL1       -0.0397
     30 C          -6.5141   -0.7097    0.7014 C.2     1  UNL1       -0.0588
     31 C           4.9757    1.5169    0.2777 C.2     1  UNL1       -0.0613
     32 C          -5.0925   -0.9543    0.8322 C.2     1  UNL1       -0.0613
     33 C           4.2442    2.5323    0.7664 C.2     1  UNL1       -0.0588
     34 C           2.7955    2.6308    0.6533 C.2     1  UNL1       -0.0504
     35 C          -4.0829   -0.0728    0.7308 C.2     1  UNL1       -0.0588
     36 C          -2.6478   -0.3129    0.8616 C.2     1  UNL1       -0.0504
     37 C           2.3036    4.0287    0.3858 C.3     1  UNL1       -0.0397
     38 C           1.9267    1.6084    0.7882 C.2     1  UNL1       -0.0588
     39 C          -1.7557    0.6894    0.7309 C.2     1  UNL1       -0.0588
     40 C          -2.3128   -1.7609    1.1041 C.3     1  UNL1       -0.0397
     41 C           0.4823    1.6717    0.6820 C.2     1  UNL1       -0.0615
     42 C          -0.3133    0.6005    0.8308 C.2     1  UNL1       -0.0615
     43 H          11.2226    0.9805    0.6047 H       1  UNL1        0.0393
     44 H          12.8159   -1.1562   -2.7611 H       1  UNL1        0.0299
     45 H          11.2148   -1.6270   -2.2081 H       1  UNL1        0.0299
     46 H          12.5121   -3.2684   -1.2330 H       1  UNL1        0.0638
     47 H          10.3653    0.6438   -2.6657 H       1  UNL1        0.0235
     48 H          11.0616    2.0576   -1.8537 H       1  UNL1        0.0235
     49 H          11.9504    1.2393   -3.1464 H       1  UNL1        0.0235
     50 H          13.8809    0.2843   -0.1132 H       1  UNL1        0.0235
     51 H          13.9869    0.8471   -1.7841 H       1  UNL1        0.0235
     52 H          13.2001    1.8451   -0.5554 H       1  UNL1        0.0235
     53 H         -12.7867    1.6893   -1.6748 H       1  UNL1        0.0298
     54 H         -13.3161    0.4604   -2.7908 H       1  UNL1        0.0298
     55 H          12.7437   -2.8395    1.2319 H       1  UNL1        0.0597
     56 H         -13.8782   -1.0556   -0.8611 H       1  UNL1        0.0596
     57 H           9.4008   -1.1254   -0.7319 H       1  UNL1        0.0578
     58 H         -13.6599   -0.3229    1.3806 H       1  UNL1        0.0335
     59 H         -13.3400    1.3402    0.9389 H       1  UNL1        0.0335
     60 H          -9.5826    0.4280   -2.9345 H       1  UNL1        0.0238
     61 H         -10.3635    1.8573   -2.2295 H       1  UNL1        0.0238
     62 H         -11.0471    1.0687   -3.6581 H       1  UNL1        0.0238
     63 H         -12.0583   -2.1280   -1.7992 H       1  UNL1        0.0238
     64 H         -10.4785   -1.8602   -2.5379 H       1  UNL1        0.0238
     65 H         -11.9422   -1.4049   -3.4110 H       1  UNL1        0.0238
     66 H          10.1974   -0.9957    2.5837 H       1  UNL1        0.0275
     67 H          11.6445    0.0024    2.8468 H       1  UNL1        0.0275
     68 H          11.7265   -1.7512    3.0432 H       1  UNL1        0.0275
     69 H          14.5758   -2.9126   -0.4012 H       1  UNL1        0.2102
     70 H          -8.7703    0.0930   -0.9238 H       1  UNL1        0.0621
     71 H           8.9852    1.5480    0.6930 H       1  UNL1        0.0617
     72 H         -11.3394   -0.9475    2.6247 H       1  UNL1        0.0275
     73 H         -10.1223    0.3257    2.2981 H       1  UNL1        0.0275
     74 H         -11.7339    0.7691    2.7679 H       1  UNL1        0.0275
     75 H         -15.3935    0.4460   -1.6648 H       1  UNL1        0.2098
     76 H          -9.5961   -1.8473    1.3121 H       1  UNL1        0.0620
     77 H           5.7049   -0.8177   -0.9128 H       1  UNL1        0.0278
     78 H           7.2265   -0.7969   -1.7843 H       1  UNL1        0.0278
     79 H           7.0861   -1.6504   -0.2272 H       1  UNL1        0.0278
     80 H           6.8581    2.3145    0.9091 H       1  UNL1        0.0620
     81 H          -6.3644   -3.4103    0.5314 H       1  UNL1        0.0278
     82 H          -7.1386   -3.2353    2.1285 H       1  UNL1        0.0278
     83 H          -8.0785   -3.6797    0.6966 H       1  UNL1        0.0278
     84 H          -6.7613    0.3351    0.5119 H       1  UNL1        0.0620
     85 H           4.4723    0.7070   -0.2386 H       1  UNL1        0.0618
     86 H          -4.8412   -1.9869    1.0548 H       1  UNL1        0.0618
     87 H           4.7351    3.3626    1.2706 H       1  UNL1        0.0620
     88 H          -4.3535    0.9624    0.5199 H       1  UNL1        0.0620
     89 H           1.9801    4.5050    1.3174 H       1  UNL1        0.0278
     90 H           1.4794    4.0515   -0.3341 H       1  UNL1        0.0278
     91 H           3.0912    4.6549   -0.0509 H       1  UNL1        0.0278
     92 H           2.3264    0.6173    1.0014 H       1  UNL1        0.0620
     93 H          -2.1377    1.6922    0.5373 H       1  UNL1        0.0620
     94 H          -2.6778   -2.3934    0.2866 H       1  UNL1        0.0278
     95 H          -1.2383   -1.9479    1.1717 H       1  UNL1        0.0278
     96 H          -2.7420   -2.1100    2.0503 H       1  UNL1        0.0278
     97 H           0.0295    2.6392    0.4868 H       1  UNL1        0.0618
     98 H           0.1337   -0.3666    1.0344 H       1  UNL1        0.0618
@<TRIPOS>BOND
     1     1     6    1
     2     1    69    1
     3     2    13    1
     4     2    75    1
     5     3     4    1
     6     3     5    1
     7     3     9    1
     8     3    10    1
     9     4     7    1
    10     4    15    1
    11     4    43    1
    12     5     6    1
    13     5    44    1
    14     5    45    1
    15     6    12    1
    16     6    46    1
    17     7    12    2
    18     7    20    1
    19     8    11    1
    20     8    14    1
    21     8    18    1
    22     8    19    1
    23     9    47    1
    24     9    48    1
    25     9    49    1
    26    10    50    1
    27    10    51    1
    28    10    52    1
    29    11    13    1
    30    11    53    1
    31    11    54    1
    32    12    55    1
    33    13    16    1
    34    13    56    1
    35    14    17    2
    36    14    22    1
    37    15    21    2
    38    15    57    1
    39    16    17    1
    40    16    58    1
    41    16    59    1
    42    17    23    1
    43    18    60    1
    44    18    61    1
    45    18    62    1
    46    19    63    1
    47    19    64    1
    48    19    65    1
    49    20    66    1
    50    20    67    1
    51    20    68    1
    52    21    24    1
    53    21    71    1
    54    22    25    2
    55    22    70    1
    56    23    72    1
    57    23    73    1
    58    23    74    1
    59    24    26    1
    60    24    28    2
    61    25    27    1
    62    25    76    1
    63    26    77    1
    64    26    78    1
    65    26    79    1
    66    27    29    1
    67    27    30    2
    68    28    31    1
    69    28    80    1
    70    29    81    1
    71    29    82    1
    72    29    83    1
    73    30    32    1
    74    30    84    1
    75    31    33    2
    76    31    85    1
    77    32    35    2
    78    32    86    1
    79    33    34    1
    80    33    87    1
    81    34    37    1
    82    34    38    2
    83    35    36    1
    84    35    88    1
    85    36    39    2
    86    36    40    1
    87    37    89    1
    88    37    90    1
    89    37    91    1
    90    38    41    1
    91    38    92    1
    92    39    42    1
    93    39    93    1
    94    40    94    1
    95    40    95    1
    96    40    96    1
    97    41    42    2
    98    41    97    1
    99    42    98    1
