@<TRIPOS>MOLECULE
lycopene
 96 95 0 0 0
SMALL
GASTEIGER

@<TRIPOS>ATOM
      1 C           0.4519   -0.0841   -0.8023 C.3     1  UNL1       -0.0283
      2 C         -12.2380  -20.7865   10.8085 C.3     1  UNL1       -0.0283
      3 C           1.7376   -0.0734   -1.6427 C.3     1  UNL1       -0.0308
      4 C         -11.3259  -21.9875   10.5117 C.3     1  UNL1       -0.0308
      5 C          -0.1198   -1.4469   -0.4584 C.2     1  UNL1       -0.0723
      6 C         -11.7328  -19.4105   10.4072 C.2     1  UNL1       -0.0723
      7 C           2.2225    1.3304   -1.8663 C.2     1  UNL1       -0.0850
      8 C         -11.9666  -23.2825   10.9432 C.2     1  UNL1       -0.0850
      9 C           3.4267    1.8184   -1.5121 C.2     1  UNL1       -0.0796
     10 C         -12.2004  -24.3549   10.1629 C.2     1  UNL1       -0.0796
     11 C          -1.3917   -1.4082    0.3554 C.3     1  UNL1       -0.0435
     12 C         -12.6767  -18.2848   10.7711 C.3     1  UNL1       -0.0435
     13 C           0.4523   -2.6056   -0.8412 C.2     1  UNL1       -0.0628
     14 C         -10.5551  -19.1853    9.7872 C.2     1  UNL1       -0.0628
     15 C           3.7796    3.2609   -1.7402 C.3     1  UNL1       -0.0440
     16 C           4.4917    0.9815   -0.8599 C.3     1  UNL1       -0.0440
     17 C         -12.8953  -25.5693   10.7107 C.3     1  UNL1       -0.0440
     18 C         -11.8057  -24.4256    8.7141 C.3     1  UNL1       -0.0440
     19 C          -0.0723   -3.9277   -0.5875 C.2     1  UNL1       -0.0616
     20 C         -10.0450  -17.8749    9.4607 C.2     1  UNL1       -0.0616
     21 C           0.5807   -5.0470   -0.9367 C.2     1  UNL1       -0.0588
     22 C          -8.8880  -17.6392    8.8207 C.2     1  UNL1       -0.0588
     23 C           0.0752   -6.3970   -0.7352 C.2     1  UNL1       -0.0504
     24 C          -8.3736  -16.2956    8.5671 C.2     1  UNL1       -0.0504
     25 C           0.4993   -7.3948   -1.7855 C.3     1  UNL1       -0.0397
     26 C          -8.7518  -15.1977    9.5454 C.3     1  UNL1       -0.0397
     27 C          -0.6724   -6.7270    0.3382 C.2     1  UNL1       -0.0588
     28 C          -7.5660  -16.0500    7.5117 C.2     1  UNL1       -0.0588
     29 C          -1.1835   -8.0520    0.5965 C.2     1  UNL1       -0.0613
     30 C          -7.0649  -14.7267    7.2041 C.2     1  UNL1       -0.0613
     31 C          -1.9594   -8.3920    1.6378 C.2     1  UNL1       -0.0588
     32 C          -6.3029  -14.3648    6.1610 C.2     1  UNL1       -0.0588
     33 C          -2.4494   -9.7532    1.8948 C.2     1  UNL1       -0.0504
     34 C          -5.8402  -12.9995    5.8942 C.2     1  UNL1       -0.0504
     35 C          -3.2263   -9.9956    2.9672 C.2     1  UNL1       -0.0588
     36 C          -5.0697  -12.7677    4.8115 C.2     1  UNL1       -0.0588
     37 C          -2.0201  -10.8138    0.9067 C.3     1  UNL1       -0.0397
     38 C          -6.2182  -11.8603    6.8152 C.3     1  UNL1       -0.0397
     39 C          -3.7709  -11.2866    3.3519 C.2     1  UNL1       -0.0615
     40 C          -4.5373  -11.4709    4.4356 C.2     1  UNL1       -0.0615
     41 H          -0.3229    0.4779   -1.3418 H       1  UNL1        0.0313
     42 H           0.6373    0.4541    0.1372 H       1  UNL1        0.0313
     43 H         -12.4434  -20.7642   11.8879 H       1  UNL1        0.0313
     44 H         -13.2029  -20.9485   10.3090 H       1  UNL1        0.0313
     45 H           2.5055   -0.6733   -1.1434 H       1  UNL1        0.0310
     46 H           1.5511   -0.5330   -2.6209 H       1  UNL1        0.0310
     47 H         -11.0903  -22.0055    9.4425 H       1  UNL1        0.0310
     48 H         -10.3781  -21.8761   11.0517 H       1  UNL1        0.0310
     49 H           1.5077    1.9902   -2.3548 H       1  UNL1        0.0572
     50 H         -12.2628  -23.3226   11.9906 H       1  UNL1        0.0572
     51 H          -2.2256   -1.8384   -0.2089 H       1  UNL1        0.0274
     52 H          -1.2677   -1.9595    1.2940 H       1  UNL1        0.0274
     53 H          -1.6694   -0.3828    0.6200 H       1  UNL1        0.0274
     54 H         -12.2851  -17.7171   11.6202 H       1  UNL1        0.0274
     55 H         -12.8332  -17.6069    9.9237 H       1  UNL1        0.0274
     56 H         -13.6663  -18.6625   11.0492 H       1  UNL1        0.0274
     57 H           1.3797   -2.5890   -1.4089 H       1  UNL1        0.0617
     58 H          -9.8949  -20.0065    9.5262 H       1  UNL1        0.0617
     59 H           4.0222    3.7404   -0.7861 H       1  UNL1        0.0274
     60 H           4.6459    3.3422   -2.4040 H       1  UNL1        0.0274
     61 H           2.9551    3.8221   -2.1921 H       1  UNL1        0.0274
     62 H           4.1461    0.5970    0.1052 H       1  UNL1        0.0274
     63 H           4.7724    0.1407   -1.5035 H       1  UNL1        0.0274
     64 H           5.3998    1.5642   -0.6745 H       1  UNL1        0.0274
     65 H         -13.7918  -25.7856   10.1203 H       1  UNL1        0.0274
     66 H         -12.2312  -26.4384   10.6720 H       1  UNL1        0.0274
     67 H         -13.2109  -25.4321   11.7503 H       1  UNL1        0.0274
     68 H         -12.3416  -23.6712    8.1291 H       1  UNL1        0.0274
     69 H         -10.7271  -24.2719    8.5976 H       1  UNL1        0.0274
     70 H         -12.0403  -25.4045    8.2836 H       1  UNL1        0.0274
     71 H          -1.0472   -3.9990   -0.1147 H       1  UNL1        0.0618
     72 H         -10.6583  -17.0392    9.7773 H       1  UNL1        0.0618
     73 H           1.5491   -4.9723   -1.4312 H       1  UNL1        0.0620
     74 H          -8.2930  -18.4748    8.4512 H       1  UNL1        0.0620
     75 H           1.1113   -8.1863   -1.3386 H       1  UNL1        0.0278
     76 H          -0.3760   -7.8475   -2.2644 H       1  UNL1        0.0278
     77 H           1.0961   -6.9378   -2.5823 H       1  UNL1        0.0278
     78 H          -7.8511  -14.7235    9.9530 H       1  UNL1        0.0278
     79 H          -9.3657  -14.4385    9.0473 H       1  UNL1        0.0278
     80 H          -9.3087  -15.5470   10.4187 H       1  UNL1        0.0278
     81 H          -0.9204   -5.9691    1.0778 H       1  UNL1        0.0620
     82 H          -7.2942  -16.8482    6.8249 H       1  UNL1        0.0620
     83 H          -0.8936   -8.8091   -0.1228 H       1  UNL1        0.0618
     84 H          -7.3664  -13.9612    7.9051 H       1  UNL1        0.0618
     85 H          -2.2490   -7.6225    2.3497 H       1  UNL1        0.0620
     86 H          -6.0012  -15.1328    5.4447 H       1  UNL1        0.0620
     87 H          -3.4872   -9.1687    3.6300 H       1  UNL1        0.0620
     88 H          -4.8084  -13.5951    4.1547 H       1  UNL1        0.0620
     89 H          -2.3851  -10.5706   -0.0966 H       1  UNL1        0.0278
     90 H          -0.9269  -10.8916    0.8837 H       1  UNL1        0.0278
     91 H          -2.3896  -11.8146    1.1305 H       1  UNL1        0.0278
     92 H          -5.3163  -11.4099    7.2458 H       1  UNL1        0.0278
     93 H          -6.7718  -11.0946    6.2603 H       1  UNL1        0.0278
     94 H          -6.8505  -12.1276    7.6602 H       1  UNL1        0.0278
     95 H          -3.5417  -12.1479    2.7344 H       1  UNL1        0.0618
     96 H          -4.7724  -10.6141    5.0643 H       1  UNL1        0.0618
@<TRIPOS>BOND
     1     1     3    1
     2     1     5    1
     3     1    41    1
     4     1    42    1
     5     2     4    1
     6     2     6    1
     7     2    43    1
     8     2    44    1
     9     3     7    1
    10     3    45    1
    11     3    46    1
    12     4     8    1
    13     4    47    1
    14     4    48    1
    15     5    11    1
    16     5    13    2
    17     6    12    1
    18     6    14    2
    19     7     9    2
    20     7    49    1
    21     8    10    2
    22     8    50    1
    23     9    15    1
    24     9    16    1
    25    10    17    1
    26    10    18    1
    27    11    51    1
    28    11    52    1
    29    11    53    1
    30    12    54    1
    31    12    55    1
    32    12    56    1
    33    13    19    1
    34    13    57    1
    35    14    20    1
    36    14    58    1
    37    15    59    1
    38    15    60    1
    39    15    61    1
    40    16    62    1
    41    16    63    1
    42    16    64    1
    43    17    65    1
    44    17    66    1
    45    17    67    1
    46    18    68    1
    47    18    69    1
    48    18    70    1
    49    19    21    2
    50    19    71    1
    51    20    22    2
    52    20    72    1
    53    21    23    1
    54    21    73    1
    55    22    24    1
    56    22    74    1
    57    23    25    1
    58    23    27    2
    59    24    26    1
    60    24    28    2
    61    25    75    1
    62    25    76    1
    63    25    77    1
    64    26    78    1
    65    26    79    1
    66    26    80    1
    67    27    29    1
    68    27    81    1
    69    28    30    1
    70    28    82    1
    71    29    31    2
    72    29    83    1
    73    30    32    2
    74    30    84    1
    75    31    33    1
    76    31    85    1
    77    32    34    1
    78    32    86    1
    79    33    35    2
    80    33    37    1
    81    34    36    2
    82    34    38    1
    83    35    39    1
    84    35    87    1
    85    36    40    1
    86    36    88    1
    87    37    89    1
    88    37    90    1
    89    37    91    1
    90    38    92    1
    91    38    93    1
    92    38    94    1
    93    39    40    2
    94    39    95    1
    95    40    96    1
