@<TRIPOS>MOLECULE
menthol
 31 31 0 0 0
SMALL
GASTEIGER

@<TRIPOS>ATOM
      1 O           0.4167    2.3656    0.4212 O.3     1  UNL1       -0.3915
      2 C           0.7056   -0.0351    0.4283 C.3     1  UNL1       -0.0126
      3 C          -0.0704    1.1567   -0.1560 C.3     1  UNL1        0.0585
      4 C           0.1195   -1.3636   -0.0670 C.3     1  UNL1       -0.0474
      5 C          -2.1491   -0.2825   -0.3743 C.3     1  UNL1       -0.0415
      6 C          -1.5705    1.0447    0.1258 C.3     1  UNL1       -0.0240
      7 C          -1.3769   -1.4666    0.2195 C.3     1  UNL1       -0.0500
      8 C           2.1959    0.0476    0.0872 C.3     1  UNL1       -0.0415
      9 C          -3.6356   -0.3844   -0.0380 C.3     1  UNL1       -0.0623
     10 C           2.9640   -1.0757    0.7771 C.3     1  UNL1       -0.0623
     11 C           2.4009   -0.0067   -1.4238 C.3     1  UNL1       -0.0623
     12 H           0.6107    0.0011    1.5233 H       1  UNL1        0.0328
     13 H           0.0505    1.2366   -1.2394 H       1  UNL1        0.0596
     14 H           0.6057   -2.2170    0.4162 H       1  UNL1        0.0269
     15 H           0.2458   -1.4865   -1.1471 H       1  UNL1        0.0269
     16 H          -2.0478   -0.3149   -1.4673 H       1  UNL1        0.0299
     17 H          -2.0912    1.8891   -0.3438 H       1  UNL1        0.0293
     18 H          -1.7507    1.1543    1.2040 H       1  UNL1        0.0293
     19 H          -1.7607   -2.4073   -0.1934 H       1  UNL1        0.0268
     20 H          -1.5344   -1.5097    1.3050 H       1  UNL1        0.0268
     21 H           2.5987    0.9985    0.4579 H       1  UNL1        0.0299
     22 H          -4.1928    0.4445   -0.4872 H       1  UNL1        0.0232
     23 H          -4.0574   -1.3190   -0.4227 H       1  UNL1        0.0232
     24 H          -3.8026   -0.3576    1.0441 H       1  UNL1        0.0232
     25 H           2.7722   -2.0566    0.3315 H       1  UNL1        0.0232
     26 H           4.0420   -0.8974    0.6899 H       1  UNL1        0.0232
     27 H           2.7273   -1.1242    1.8452 H       1  UNL1        0.0232
     28 H           2.1015   -0.9567   -1.8739 H       1  UNL1        0.0232
     29 H           3.4719    0.0983   -1.6398 H       1  UNL1        0.0232
     30 H           1.9134    0.8109   -1.9586 H       1  UNL1        0.0232
     31 H           0.2875    2.3126    1.3836 H       1  UNL1        0.2098
@<TRIPOS>BOND
     1     1     3    1
     2     1    31    1
     3     2     3    1
     4     2     4    1
     5     2     8    1
     6     2    12    1
     7     3     6    1
     8     3    13    1
     9     4     7    1
    10     4    14    1
    11     4    15    1
    12     5     6    1
    13     5     7    1
    14     5     9    1
    15     5    16    1
    16     6    17    1
    17     6    18    1
    18     7    19    1
    19     7    20    1
    20     8    10    1
    21     8    11    1
    22     8    21    1
    23     9    22    1
    24     9    23    1
    25     9    24    1
    26    10    25    1
    27    10    26    1
    28    10    27    1
    29    11    28    1
    30    11    29    1
    31    11    30    1
