@<TRIPOS>MOLECULE
mevalonic_acid
 22 21 0 0 0
SMALL
GASTEIGER

@<TRIPOS>ATOM
      1 O          -0.4485    1.8141    0.9821 O.3     1  UNL1       -0.3882
      2 O           2.8253   -1.6460    0.4486 O.3     1  UNL1       -0.3949
      3 O          -1.6939   -1.8737   -0.6774 O.3     1  UNL1       -0.4805
      4 O          -2.3192   -0.3944    0.9289 O.2     1  UNL1       -0.2509
      5 C           0.1932    1.0572   -0.0538 C.3     1  UNL1        0.0754
      6 C           1.1693    0.0727    0.6214 C.3     1  UNL1       -0.0005
      7 C          -0.9092    0.3747   -0.8807 C.3     1  UNL1        0.0733
      8 C           0.9380    2.0645   -0.9396 C.3     1  UNL1       -0.0355
      9 C           1.9580   -0.8245   -0.3246 C.3     1  UNL1        0.0468
     10 C          -1.7133   -0.6446   -0.1050 C.2     1  UNL1        0.3075
     11 H           1.8774    0.6345    1.2472 H       1  UNL1        0.0315
     12 H           0.6289   -0.5483    1.3486 H       1  UNL1        0.0315
     13 H          -0.4786   -0.1115   -1.7643 H       1  UNL1        0.0406
     14 H          -1.6316    1.1144   -1.2491 H       1  UNL1        0.0406
     15 H           0.2576    2.8499   -1.2892 H       1  UNL1        0.0257
     16 H           1.3886    1.5899   -1.8164 H       1  UNL1        0.0257
     17 H           1.7284    2.5721   -0.3749 H       1  UNL1        0.0257
     18 H           2.5805   -0.2408   -1.0076 H       1  UNL1        0.0558
     19 H           1.3064   -1.4749   -0.9144 H       1  UNL1        0.0558
     20 H           0.2411    2.2766    1.4884 H       1  UNL1        0.2102
     21 H           2.2700   -2.1945    1.0287 H       1  UNL1        0.2094
     22 H          -2.2179   -2.5250   -0.1641 H       1  UNL1        0.2951
@<TRIPOS>BOND
     1     1     5    1
     2     1    20    1
     3     2     9    1
     4     2    21    1
     5     3    10    1
     6     3    22    1
     7     4    10    2
     8     5     6    1
     9     5     7    1
    10     5     8    1
    11     6     9    1
    12     6    11    1
    13     6    12    1
    14     7    10    1
    15     7    13    1
    16     7    14    1
    17     8    15    1
    18     8    16    1
    19     8    17    1
    20     9    18    1
    21     9    19    1
