@<TRIPOS>MOLECULE
phytol
 61 60 0 0 0
SMALL
GASTEIGER

@<TRIPOS>ATOM
      1 O           1.3343    4.3432    1.1780 O.3     1  UNL1       -0.3910
      2 C           0.5197   -2.9023   -0.5366 C.3     1  UNL1       -0.0439
      3 C          -1.0207   -2.7815   -0.5080 C.3     1  UNL1       -0.0505
      4 C          -3.7154   -1.1451   -0.0565 C.3     1  UNL1       -0.0439
      5 C          -1.6228   -2.4286    0.8565 C.3     1  UNL1       -0.0526
      6 C          -3.1505   -2.2797    0.8276 C.3     1  UNL1       -0.0505
      7 C           1.2045   -1.5597   -0.2118 C.3     1  UNL1       -0.0505
      8 C          -3.0803    0.2180    0.2876 C.3     1  UNL1       -0.0502
      9 C           2.7244   -1.5911   -0.4209 C.3     1  UNL1       -0.0526
     10 C           3.3436   -0.2141   -0.1526 C.3     1  UNL1       -0.0507
     11 C           1.0074   -4.0338    0.3726 C.3     1  UNL1       -0.0624
     12 C          -3.5602    1.3677   -0.6084 C.3     1  UNL1       -0.0491
     13 C          -5.2420   -1.1192    0.0920 C.3     1  UNL1       -0.0624
     14 C           4.8632   -0.1169   -0.3875 C.3     1  UNL1       -0.0467
     15 C          -2.8666    2.6861   -0.2342 C.3     1  UNL1       -0.0319
     16 C           5.6531   -1.0782    0.5006 C.3     1  UNL1       -0.0627
     17 C           5.3881    1.3102   -0.2297 C.3     1  UNL1       -0.0627
     18 C          -1.3502    2.7519   -0.3579 C.2     1  UNL1       -0.0744
     19 C          -0.8757    2.5558   -1.7762 C.3     1  UNL1       -0.0437
     20 C          -0.5237    2.9559    0.6875 C.2     1  UNL1       -0.0600
     21 C           0.9698    3.0614    0.6778 C.3     1  UNL1        0.0626
     22 H           0.7894   -3.1744   -1.5663 H       1  UNL1        0.0298
     23 H          -1.4579   -3.7262   -0.8560 H       1  UNL1        0.0268
     24 H          -1.3092   -2.0217   -1.2438 H       1  UNL1        0.0268
     25 H          -3.4922   -1.3782   -1.1049 H       1  UNL1        0.0298
     26 H          -1.1690   -1.5233    1.2685 H       1  UNL1        0.0265
     27 H          -1.3868   -3.2310    1.5660 H       1  UNL1        0.0265
     28 H          -3.5874   -3.2339    0.5052 H       1  UNL1        0.0268
     29 H          -3.4882   -2.1238    1.8610 H       1  UNL1        0.0268
     30 H           0.7732   -0.7763   -0.8480 H       1  UNL1        0.0268
     31 H           1.0019   -1.2727    0.8267 H       1  UNL1        0.0268
     32 H          -3.2820    0.4630    1.3381 H       1  UNL1        0.0268
     33 H          -1.9942    0.1406    0.1802 H       1  UNL1        0.0268
     34 H           2.9520   -1.9024   -1.4469 H       1  UNL1        0.0265
     35 H           3.1704   -2.3257    0.2558 H       1  UNL1        0.0265
     36 H           2.8466    0.5228   -0.7971 H       1  UNL1        0.0268
     37 H           3.1221    0.0825    0.8809 H       1  UNL1        0.0268
     38 H           0.9318   -3.7629    1.4305 H       1  UNL1        0.0232
     39 H           0.4204   -4.9442    0.2102 H       1  UNL1        0.0232
     40 H           2.0519   -4.2855    0.1641 H       1  UNL1        0.0232
     41 H          -3.3762    1.1251   -1.6611 H       1  UNL1        0.0268
     42 H          -4.6398    1.5129   -0.4945 H       1  UNL1        0.0268
     43 H          -5.7032   -0.4483   -0.6388 H       1  UNL1        0.0232
     44 H          -5.6661   -2.1150   -0.0771 H       1  UNL1        0.0232
     45 H          -5.5380   -0.7912    1.0942 H       1  UNL1        0.0232
     46 H           5.0529   -0.4097   -1.4290 H       1  UNL1        0.0295
     47 H          -3.1562    2.9425    0.7939 H       1  UNL1        0.0310
     48 H          -3.2895    3.4846   -0.8584 H       1  UNL1        0.0310
     49 H           5.4425   -0.8994    1.5603 H       1  UNL1        0.0232
     50 H           6.7305   -0.9545    0.3455 H       1  UNL1        0.0232
     51 H           5.4144   -2.1217    0.2746 H       1  UNL1        0.0232
     52 H           5.2446    1.6708    0.7945 H       1  UNL1        0.0232
     53 H           4.8630    1.9933   -0.9055 H       1  UNL1        0.0232
     54 H           6.4566    1.3636   -0.4635 H       1  UNL1        0.0232
     55 H          -0.9935    1.5094   -2.0754 H       1  UNL1        0.0274
     56 H          -1.4609    3.1792   -2.4612 H       1  UNL1        0.0274
     57 H           0.1695    2.8292   -1.9313 H       1  UNL1        0.0274
     58 H          -0.9775    3.0721    1.6711 H       1  UNL1        0.0594
     59 H           1.3890    2.3003    1.3441 H       1  UNL1        0.0601
     60 H           1.4224    2.9352   -0.3063 H       1  UNL1        0.0601
     61 H           2.3060    4.3728    1.2043 H       1  UNL1        0.2098
@<TRIPOS>BOND
     1     1    21    1
     2     1    61    1
     3     2     3    1
     4     2     7    1
     5     2    11    1
     6     2    22    1
     7     3     5    1
     8     3    23    1
     9     3    24    1
    10     4     6    1
    11     4     8    1
    12     4    13    1
    13     4    25    1
    14     5     6    1
    15     5    26    1
    16     5    27    1
    17     6    28    1
    18     6    29    1
    19     7     9    1
    20     7    30    1
    21     7    31    1
    22     8    12    1
    23     8    32    1
    24     8    33    1
    25     9    10    1
    26     9    34    1
    27     9    35    1
    28    10    14    1
    29    10    36    1
    30    10    37    1
    31    11    38    1
    32    11    39    1
    33    11    40    1
    34    12    15    1
    35    12    41    1
    36    12    42    1
    37    13    43    1
    38    13    44    1
    39    13    45    1
    40    14    16    1
    41    14    17    1
    42    14    46    1
    43    15    18    1
    44    15    47    1
    45    15    48    1
    46    16    49    1
    47    16    50    1
    48    16    51    1
    49    17    52    1
    50    17    53    1
    51    17    54    1
    52    18    19    1
    53    18    20    2
    54    19    55    1
    55    19    56    1
    56    19    57    1
    57    20    21    1
    58    20    58    1
    59    21    59    1
    60    21    60    1
