@<TRIPOS>MOLECULE
squalene
 80 79 0 0 0
SMALL
GASTEIGER

@<TRIPOS>ATOM
      1 C          -0.8176   -1.2475   -1.6189 C.3     1  UNL1       -0.0286
      2 C           4.2258   -1.0435    1.6688 C.3     1  UNL1       -0.0286
      3 C           2.7689   -0.0574   -2.8236 C.3     1  UNL1       -0.0311
      4 C           3.8733   -0.9496   -2.2426 C.3     1  UNL1       -0.0311
      5 C          -1.0233   -2.6710   -1.0942 C.3     1  UNL1       -0.0308
      6 C           3.0252   -0.9965    2.6209 C.3     1  UNL1       -0.0308
      7 C           0.4664   -1.1048   -2.4045 C.2     1  UNL1       -0.0762
      8 C           3.9027   -1.5075    0.2605 C.2     1  UNL1       -0.0762
      9 C           1.4572   -0.2413   -2.1090 C.2     1  UNL1       -0.0847
     10 C           4.1110   -0.6808   -0.7827 C.2     1  UNL1       -0.0847
     11 C          -2.5216   -2.6111    0.9744 C.2     1  UNL1       -0.0762
     12 C           1.7951    1.2316    2.3522 C.2     1  UNL1       -0.0762
     13 C          -3.8697   -2.7052    1.6530 C.3     1  UNL1       -0.0286
     14 C           0.6287    2.0692    1.8714 C.3     1  UNL1       -0.0286
     15 C          -2.3208   -2.7906   -0.3454 C.2     1  UNL1       -0.0847
     16 C           1.9246   -0.0923    2.1379 C.2     1  UNL1       -0.0847
     17 C          -4.5737   -1.3481    1.7353 C.3     1  UNL1       -0.0308
     18 C           1.0259    3.1989    0.9119 C.3     1  UNL1       -0.0308
     19 C           0.6041   -2.0392   -3.5787 C.3     1  UNL1       -0.0438
     20 C           3.4090   -2.9231    0.1442 C.3     1  UNL1       -0.0438
     21 C          -1.3704   -2.2474    1.8753 C.3     1  UNL1       -0.0438
     22 C           2.8312    1.9689    3.1607 C.3     1  UNL1       -0.0438
     23 C          -4.8302   -0.7907    0.3631 C.2     1  UNL1       -0.0850
     24 C          -0.1556    4.0024    0.4437 C.2     1  UNL1       -0.0850
     25 C          -4.3713    0.3645   -0.1545 C.2     1  UNL1       -0.0796
     26 C          -0.5325    4.2705   -0.8207 C.2     1  UNL1       -0.0796
     27 C          -3.4608    1.3277    0.5527 C.3     1  UNL1       -0.0440
     28 C          -4.7478    0.7758   -1.5526 C.3     1  UNL1       -0.0440
     29 C           0.2766    3.7532   -1.9806 C.3     1  UNL1       -0.0440
     30 C          -1.7307    5.0847   -1.2177 C.3     1  UNL1       -0.0440
     31 H          -0.8195   -0.5416   -0.7781 H       1  UNL1        0.0313
     32 H          -1.6572   -0.9595   -2.2649 H       1  UNL1        0.0313
     33 H           4.9790   -1.7227    2.0892 H       1  UNL1        0.0313
     34 H           4.7022   -0.0544    1.6497 H       1  UNL1        0.0313
     35 H           3.0586    0.9976   -2.7259 H       1  UNL1        0.0310
     36 H           2.6815   -0.2263   -3.9007 H       1  UNL1        0.0310
     37 H           4.8079   -0.7451   -2.7795 H       1  UNL1        0.0310
     38 H           3.6359   -1.9970   -2.4453 H       1  UNL1        0.0310
     39 H          -0.1667   -2.9998   -0.4972 H       1  UNL1        0.0310
     40 H          -1.0773   -3.3814   -1.9288 H       1  UNL1        0.0310
     41 H           2.6050   -2.0033    2.7419 H       1  UNL1        0.0310
     42 H           3.3597   -0.7196    3.6261 H       1  UNL1        0.0310
     43 H           1.3156    0.4052   -1.2437 H       1  UNL1        0.0572
     44 H           4.4932    0.3182   -0.5742 H       1  UNL1        0.0572
     45 H          -4.5052   -3.4160    1.1075 H       1  UNL1        0.0313
     46 H          -3.7530   -3.1250    2.6594 H       1  UNL1        0.0313
     47 H           0.1172    2.4886    2.7477 H       1  UNL1        0.0313
     48 H          -0.1069    1.4230    1.3737 H       1  UNL1        0.0313
     49 H          -3.1848   -3.0305   -0.9634 H       1  UNL1        0.0572
     50 H           1.1593   -0.5798    1.5395 H       1  UNL1        0.0572
     51 H          -5.5426   -1.4850    2.2312 H       1  UNL1        0.0310
     52 H          -4.0030   -0.6696    2.3739 H       1  UNL1        0.0310
     53 H           1.5898    2.7609    0.0841 H       1  UNL1        0.0310
     54 H           1.7063    3.8937    1.4187 H       1  UNL1        0.0310
     55 H           0.8386   -3.0518   -3.2346 H       1  UNL1        0.0274
     56 H           1.3738   -1.7543   -4.2977 H       1  UNL1        0.0274
     57 H          -0.3363   -2.0752   -4.1402 H       1  UNL1        0.0274
     58 H           3.3759   -3.2964   -0.8806 H       1  UNL1        0.0274
     59 H           2.3983   -3.0086    0.5553 H       1  UNL1        0.0274
     60 H           4.0663   -3.5980    0.7030 H       1  UNL1        0.0274
     61 H          -1.3013   -2.9682    2.6974 H       1  UNL1        0.0274
     62 H          -0.3959   -2.2342    1.3890 H       1  UNL1        0.0274
     63 H          -1.5319   -1.2539    2.3069 H       1  UNL1        0.0274
     64 H           2.3465    2.5133    3.9785 H       1  UNL1        0.0274
     65 H           3.5979    1.3384    3.6137 H       1  UNL1        0.0274
     66 H           3.3559    2.6943    2.5305 H       1  UNL1        0.0274
     67 H          -5.4864   -1.4027   -0.2550 H       1  UNL1        0.0572
     68 H          -0.7668    4.4181    1.2441 H       1  UNL1        0.0572
     69 H          -2.5629    1.5023   -0.0501 H       1  UNL1        0.0274
     70 H          -3.9680    2.2875    0.6957 H       1  UNL1        0.0274
     71 H          -3.1213    0.9841    1.5310 H       1  UNL1        0.0274
     72 H          -5.2665    1.7400   -1.5368 H       1  UNL1        0.0274
     73 H          -3.8508    0.8735   -2.1731 H       1  UNL1        0.0274
     74 H          -5.4092    0.0505   -2.0381 H       1  UNL1        0.0274
     75 H          -0.1305    2.7981   -2.3277 H       1  UNL1        0.0274
     76 H           1.3389    3.6298   -1.7576 H       1  UNL1        0.0274
     77 H           0.2333    4.4597   -2.8176 H       1  UNL1        0.0274
     78 H          -1.4231    5.9741   -1.7769 H       1  UNL1        0.0274
     79 H          -2.2972    5.4189   -0.3423 H       1  UNL1        0.0274
     80 H          -2.4040    4.4901   -1.8437 H       1  UNL1        0.0274
@<TRIPOS>BOND
     1     1     5    1
     2     1     7    1
     3     1    31    1
     4     1    32    1
     5     2     6    1
     6     2     8    1
     7     2    33    1
     8     2    34    1
     9     3     4    1
    10     3     9    1
    11     3    35    1
    12     3    36    1
    13     4    10    1
    14     4    37    1
    15     4    38    1
    16     5    15    1
    17     5    39    1
    18     5    40    1
    19     6    16    1
    20     6    41    1
    21     6    42    1
    22     7     9    2
    23     7    19    1
    24     8    10    2
    25     8    20    1
    26     9    43    1
    27    10    44    1
    28    11    13    1
    29    11    15    2
    30    11    21    1
    31    12    14    1
    32    12    16    2
    33    12    22    1
    34    13    17    1
    35    13    45    1
    36    13    46    1
    37    14    18    1
    38    14    47    1
    39    14    48    1
    40    15    49    1
    41    16    50    1
    42    17    23    1
    43    17    51    1
    44    17    52    1
    45    18    24    1
    46    18    53    1
    47    18    54    1
    48    19    55    1
    49    19    56    1
    50    19    57    1
    51    20    58    1
    52    20    59    1
    53    20    60    1
    54    21    61    1
    55    21    62    1
    56    21    63    1
    57    22    64    1
    58    22    65    1
    59    22    66    1
    60    23    25    2
    61    23    67    1
    62    24    26    2
    63    24    68    1
    64    25    27    1
    65    25    28    1
    66    26    29    1
    67    26    30    1
    68    27    69    1
    69    27    70    1
    70    27    71    1
    71    28    72    1
    72    28    73    1
    73    28    74    1
    74    29    75    1
    75    29    76    1
    76    29    77    1
    77    30    78    1
    78    30    79    1
    79    30    80    1
