@<TRIPOS>MOLECULE
zeaxanthin
 98 99 0 0 0
SMALL
GASTEIGER

@<TRIPOS>ATOM
      1 O          14.8482   -2.4543   -0.0365 O.3     1  UNL1       -0.3914
      2 O         -15.2598    1.4474   -0.1037 O.3     1  UNL1       -0.3914
      3 C          11.0852   -1.9694   -0.1707 C.3     1  UNL1       -0.0076
      4 C         -12.5476   -1.0971    0.6594 C.3     1  UNL1       -0.0076
      5 C          12.4582   -2.5665    0.2364 C.3     1  UNL1       -0.0174
      6 C         -13.9545   -0.5275    0.3378 C.3     1  UNL1       -0.0174
      7 C          13.6189   -1.8692   -0.4551 C.3     1  UNL1        0.0597
      8 C         -13.9464    0.9864    0.1983 C.3     1  UNL1        0.0597
      9 C          11.1159   -0.4228   -0.1719 C.2     1  UNL1       -0.0426
     10 C         -11.4561   -0.4479   -0.2239 C.2     1  UNL1       -0.0426
     11 C          13.6327   -0.3933   -0.0809 C.3     1  UNL1       -0.0053
     12 C         -13.0166    1.3963   -0.9358 C.3     1  UNL1       -0.0053
     13 C          12.2754    0.2787   -0.1044 C.2     1  UNL1       -0.0665
     14 C         -11.6896    0.6665   -0.9620 C.2     1  UNL1       -0.0665
     15 C          10.0580   -2.5309    0.8424 C.3     1  UNL1       -0.0557
     16 C          10.7148   -2.4809   -1.5815 C.3     1  UNL1       -0.0557
     17 C         -12.2302   -0.8367    2.1496 C.3     1  UNL1       -0.0557
     18 C         -12.6446   -2.6260    0.4363 C.3     1  UNL1       -0.0557
     19 C           9.8216    0.2307   -0.2763 C.2     1  UNL1       -0.0579
     20 C         -10.1550   -1.0957   -0.1916 C.2     1  UNL1       -0.0579
     21 C          12.3950    1.7843   -0.0475 C.3     1  UNL1       -0.0431
     22 C         -10.7013    1.3346   -1.8898 C.3     1  UNL1       -0.0431
     23 C           9.5058    1.3441    0.4039 C.2     1  UNL1       -0.0586
     24 C          -8.9969   -0.4171   -0.1546 C.2     1  UNL1       -0.0586
     25 C           8.2281    2.0555    0.3582 C.2     1  UNL1       -0.0504
     26 C          -7.6545   -0.9980   -0.1171 C.2     1  UNL1       -0.0504
     27 C           8.2666    3.5644    0.3172 C.3     1  UNL1       -0.0397
     28 C          -7.5490   -2.5059   -0.1113 C.3     1  UNL1       -0.0397
     29 C           7.0292    1.4352    0.3204 C.2     1  UNL1       -0.0588
     30 C          -6.5153   -0.2731   -0.0804 C.2     1  UNL1       -0.0588
     31 C           5.7050    2.0229    0.2735 C.2     1  UNL1       -0.0613
     32 C          -5.1434   -0.7466   -0.0416 C.2     1  UNL1       -0.0613
     33 C           4.5650    1.3129    0.2381 C.2     1  UNL1       -0.0588
     34 C          -4.0917    0.0901   -0.0071 C.2     1  UNL1       -0.0588
     35 C           3.1985    1.8439    0.2077 C.2     1  UNL1       -0.0504
     36 C          -2.6795   -0.2912    0.0302 C.2     1  UNL1       -0.0504
     37 C           3.0407    3.3435    0.1944 C.3     1  UNL1       -0.0397
     38 C          -2.3484   -1.7636    0.0642 C.3     1  UNL1       -0.0397
     39 C           2.1754    0.9630    0.1738 C.2     1  UNL1       -0.0588
     40 C          -1.6696    0.6044    0.0639 C.2     1  UNL1       -0.0588
     41 C           0.7549    1.2544    0.1357 C.2     1  UNL1       -0.0615
     42 C          -0.2430    0.3547    0.1024 C.2     1  UNL1       -0.0615
     43 H          12.6013   -2.4887    1.3243 H       1  UNL1        0.0298
     44 H          12.4933   -3.6436    0.0249 H       1  UNL1        0.0298
     45 H         -14.6802   -0.8244    1.1069 H       1  UNL1        0.0298
     46 H         -14.3386   -0.9639   -0.5961 H       1  UNL1        0.0298
     47 H          13.5531   -1.9826   -1.5428 H       1  UNL1        0.0596
     48 H         -13.6358    1.4660    1.1329 H       1  UNL1        0.0596
     49 H          14.0689   -0.2635    0.9188 H       1  UNL1        0.0335
     50 H          14.3195    0.1136   -0.7712 H       1  UNL1        0.0335
     51 H         -13.5185    1.2458   -1.9013 H       1  UNL1        0.0335
     52 H         -12.8444    2.4780   -0.8569 H       1  UNL1        0.0335
     53 H          10.1088   -3.6252    0.8887 H       1  UNL1        0.0238
     54 H           9.0290   -2.2697    0.5709 H       1  UNL1        0.0238
     55 H          10.2442   -2.1445    1.8512 H       1  UNL1        0.0238
     56 H          11.3658   -2.0550   -2.3528 H       1  UNL1        0.0238
     57 H          10.8009   -3.5723   -1.6397 H       1  UNL1        0.0238
     58 H           9.6826   -2.2302   -1.8498 H       1  UNL1        0.0238
     59 H         -12.1163    0.2319    2.3618 H       1  UNL1        0.0238
     60 H         -11.2989   -1.3289    2.4531 H       1  UNL1        0.0238
     61 H         -13.0259   -1.2233    2.7967 H       1  UNL1        0.0238
     62 H         -13.5257   -3.0392    0.9423 H       1  UNL1        0.0238
     63 H         -11.7785   -3.1616    0.8399 H       1  UNL1        0.0238
     64 H         -12.7308   -2.8691   -0.6291 H       1  UNL1        0.0238
     65 H           9.1025   -0.2055   -0.9631 H       1  UNL1        0.0621
     66 H         -10.1508   -2.1783   -0.2404 H       1  UNL1        0.0621
     67 H          11.6229    2.3048   -0.6194 H       1  UNL1        0.0275
     68 H          12.4080    2.1330    0.9897 H       1  UNL1        0.0275
     69 H          13.3367    2.1110   -0.5049 H       1  UNL1        0.0275
     70 H         -11.2247    1.7322   -2.7679 H       1  UNL1        0.0275
     71 H          -9.9509    0.6517   -2.2959 H       1  UNL1        0.0275
     72 H         -10.2109    2.1763   -1.3909 H       1  UNL1        0.0275
     73 H          14.8231   -3.3949   -0.2818 H       1  UNL1        0.2098
     74 H         -15.8402    1.1778    0.6286 H       1  UNL1        0.2098
     75 H          10.1870    1.7736    1.1329 H       1  UNL1        0.0620
     76 H          -9.0026    0.6675   -0.0731 H       1  UNL1        0.0620
     77 H           9.2862    3.9274    0.1424 H       1  UNL1        0.0278
     78 H           7.6538    3.9652   -0.4972 H       1  UNL1        0.0278
     79 H           7.9283    3.9852    1.2700 H       1  UNL1        0.0278
     80 H          -8.1076   -2.9168    0.7385 H       1  UNL1        0.0278
     81 H          -7.9789   -2.9137   -1.0340 H       1  UNL1        0.0278
     82 H          -6.5482   -2.9274   -0.0316 H       1  UNL1        0.0278
     83 H           7.0248    0.3446    0.3432 H       1  UNL1        0.0620
     84 H          -6.6169    0.8130   -0.0817 H       1  UNL1        0.0620
     85 H           5.6600    3.1072    0.2822 H       1  UNL1        0.0618
     86 H          -4.9594   -1.8115   -0.0491 H       1  UNL1        0.0618
     87 H           4.6459    0.2257    0.2366 H       1  UNL1        0.0620
     88 H          -4.2768    1.1638   -0.0064 H       1  UNL1        0.0620
     89 H           3.4769    3.7823    1.0989 H       1  UNL1        0.0278
     90 H           2.0030    3.6799    0.1555 H       1  UNL1        0.0278
     91 H           3.5395    3.7742   -0.6811 H       1  UNL1        0.0278
     92 H          -2.8508   -2.2408    0.9143 H       1  UNL1        0.0278
     93 H          -2.6996   -2.2460   -0.8558 H       1  UNL1        0.0278
     94 H          -1.2975   -2.0297    0.1655 H       1  UNL1        0.0278
     95 H           2.4036   -0.1034    0.1777 H       1  UNL1        0.0620
     96 H          -1.9308    1.6631    0.0541 H       1  UNL1        0.0620
     97 H           0.4670    2.3016    0.1383 H       1  UNL1        0.0618
     98 H           0.0791   -0.6810    0.0960 H       1  UNL1        0.0618
@<TRIPOS>BOND
     1     1     7    1
     2     1    73    1
     3     2     8    1
     4     2    74    1
     5     3     5    1
     6     3     9    1
     7     3    15    1
     8     3    16    1
     9     4     6    1
    10     4    10    1
    11     4    17    1
    12     4    18    1
    13     5     7    1
    14     5    43    1
    15     5    44    1
    16     6     8    1
    17     6    45    1
    18     6    46    1
    19     7    11    1
    20     7    47    1
    21     8    12    1
    22     8    48    1
    23     9    13    2
    24     9    19    1
    25    10    14    2
    26    10    20    1
    27    11    13    1
    28    11    49    1
    29    11    50    1
    30    12    14    1
    31    12    51    1
    32    12    52    1
    33    13    21    1
    34    14    22    1
    35    15    53    1
    36    15    54    1
    37    15    55    1
    38    16    56    1
    39    16    57    1
    40    16    58    1
    41    17    59    1
    42    17    60    1
    43    17    61    1
    44    18    62    1
    45    18    63    1
    46    18    64    1
    47    19    23    2
    48    19    65    1
    49    20    24    2
    50    20    66    1
    51    21    67    1
    52    21    68    1
    53    21    69    1
    54    22    70    1
    55    22    71    1
    56    22    72    1
    57    23    25    1
    58    23    75    1
    59    24    26    1
    60    24    76    1
    61    25    27    1
    62    25    29    2
    63    26    28    1
    64    26    30    2
    65    27    77    1
    66    27    78    1
    67    27    79    1
    68    28    80    1
    69    28    81    1
    70    28    82    1
    71    29    31    1
    72    29    83    1
    73    30    32    1
    74    30    84    1
    75    31    33    2
    76    31    85    1
    77    32    34    2
    78    32    86    1
    79    33    35    1
    80    33    87    1
    81    34    36    1
    82    34    88    1
    83    35    37    1
    84    35    39    2
    85    36    38    1
    86    36    40    2
    87    37    89    1
    88    37    90    1
    89    37    91    1
    90    38    92    1
    91    38    93    1
    92    38    94    1
    93    39    41    1
    94    39    95    1
    95    40    42    1
    96    40    96    1
    97    41    42    2
    98    41    97    1
    99    42    98    1
