@<TRIPOS>MOLECULE
angiotensin_ii
 146 149 0 0 0
SMALL
GASTEIGER

@<TRIPOS>ATOM
      1 O           3.4671   -6.6356    7.4970 O.2     6  HIS6       -0.2735
      2 O           1.5628   -9.1363    8.1975 O.2     7  PRO7       -0.2738
      3 O           3.2454   -2.5776    5.1547 O.2     5  ILE5       -0.2738
      4 O           2.2172  -11.5972    9.1370 O.3     8  PHE8       -0.4793
      5 O           6.9084   -2.9278    2.3212 O.2     4  TYR4       -0.2738
      6 OXT         4.2651  -12.4058    9.5896 O.2     8  PHE8       -0.2489
      7 O           6.5369   -1.3106   -1.1796 O.2     3  VAL3       -0.2738
      8 O           4.3026    3.1651    0.8689 O.2     2  ARG2       -0.2738
      9 OH          1.2939   -3.3071   -3.6307 O.3     4  TYR4       -0.5068
     10 O           2.2166   -0.7046   -0.3746 O.2     1  ASP1       -0.2741
     11 OD1        -1.9663   -3.2545    1.9121 O.3     1  ASP1       -0.4806
     12 OD2        -2.9141   -1.4445    0.9418 O.2     1  ASP1       -0.2509
     13 N           1.9097   -6.1498    9.0940 N.am    7  PRO7       -0.2884
     14 N           3.4322   -4.4757    6.3883 N.am    6  HIS6       -0.3021
     15 N           3.6923   -9.1468    8.9737 N.am    8  PHE8       -0.3006
     16 N           4.9924   -3.3830    3.4176 N.am    5  ILE5       -0.3022
     17 ND1         1.5305   -7.6220    5.3730 N.ar    6  HIS6       -0.3481
     18 N           4.9256   -1.3177    0.4308 N.am    4  TYR4       -0.3022
     19 NE2        -0.4348   -8.3880    4.6866 N.ar    6  HIS6       -0.2440
     20 N           4.0501    1.1052   -0.0858 N.am    3  VAL3       -0.3022
     21 N           1.1108    0.9405    0.7521 N.am    2  ARG2       -0.3027
     22 NE         -1.5472    3.1736    3.5792 N.pl3   2  ARG2       -0.1138
     23 N          -0.1310   -2.3790   -0.7923 N.3     1  ASP1       -0.3195
     24 NH1        -1.0200    2.8444    5.8859 N.pl3   2  ARG2       -0.2893
     25 NH2        -2.7516    4.0227    5.3567 N.pl3   2  ARG2       -0.2893
     26 CA          2.2572   -7.3587    9.7813 C.3     7  PRO7        0.1023
     27 CB          1.0872   -7.5077   10.7336 C.3     7  PRO7       -0.0243
     28 CG          0.7767   -6.0743   11.1658 C.3     7  PRO7       -0.0350
     29 CD          1.2793   -5.2004   10.0185 C.3     7  PRO7        0.0156
     30 C           2.5995   -5.8709    7.9622 C.2     6  HIS6        0.2369
     31 CA          2.1662   -4.6909    7.1434 C.3     6  HIS6        0.1050
     32 C           2.4248   -8.6189    8.8972 C.2     7  PRO7        0.2342
     33 CB          0.8504   -5.2490    6.4987 C.3     6  HIS6        0.0160
     34 CA          5.2896   -3.8681    4.8131 C.3     5  ILE5        0.1020
     35 CB          6.3716   -3.3640    5.8605 C.3     5  ILE5       -0.0171
     36 C           3.8792   -3.5968    5.4644 C.2     5  ILE5        0.2342
     37 CA          4.1014  -10.3480    8.2394 C.3     8  PHE8        0.1242
     38 CG          0.6376   -6.6251    5.7515 C.ar    6  HIS6        0.0375
     39 CG1         6.1379   -2.0350    6.6687 C.3     5  ILE5       -0.0512
     40 CB          5.6119  -10.2968    8.0010 C.3     8  PHE8        0.0012
     41 CG2         7.8781   -3.5466    5.6547 C.3     5  ILE5       -0.0603
     42 CA          4.8747   -2.7087    0.9643 C.3     4  TYR4        0.1034
     43 C           5.7219   -2.9576    2.3102 C.2     4  TYR4        0.2343
     44 C           3.5748  -11.5618    9.0458 C.2     8  PHE8        0.3256
     45 CD1         6.6883   -0.7283    6.0985 C.3     5  ILE5       -0.0650
     46 CD2        -0.5850   -7.2029    5.3588 C.ar    6  HIS6        0.0485
     47 CG          6.1789  -11.4631    7.2435 C.ar    8  PHE8       -0.0451
     48 CA          5.3557    0.7831   -0.7062 C.3     3  VAL3        0.1017
     49 CB          5.3068   -3.8764    0.0314 C.3     4  TYR4       -0.0007
     50 CB          6.6043    1.4240   -0.1121 C.3     3  VAL3       -0.0197
     51 C           5.6402   -0.7786   -0.6151 C.2     3  VAL3        0.2342
     52 CE1         0.8589   -8.6387    4.7166 C.ar    6  HIS6        0.0935
     53 CG          4.3684   -4.1800   -1.1106 C.ar    4  TYR4       -0.0449
     54 CD1         6.1813  -11.5185    5.8449 C.ar    8  PHE8       -0.0585
     55 CD2         6.8113  -12.4766    7.9732 C.ar    8  PHE8       -0.0585
     56 CA          2.0737    2.1468    0.9457 C.3     2  ARG2        0.0995
     57 CG1         7.0475    1.0852    1.3205 C.3     3  VAL3       -0.0605
     58 CG2         7.6807    1.1699   -1.1981 C.3     3  VAL3       -0.0605
     59 C           3.5968    2.2072    0.6055 C.2     2  ARG2        0.2340
     60 CB          2.0371    2.8598    2.3621 C.3     2  ARG2       -0.0230
     61 CE1         6.8891  -12.5314    5.1935 C.ar    8  PHE8       -0.0615
     62 CE2         7.5518  -13.4547    7.3238 C.ar    8  PHE8       -0.0615
     63 CD1         4.6786   -3.6539   -2.3727 C.ar    4  TYR4       -0.0551
     64 CD2         3.1199   -4.7429   -0.8708 C.ar    4  TYR4       -0.0551
     65 CG          0.7514    3.4808    2.8910 C.3     2  ARG2       -0.0165
     66 CZ          7.6008  -13.4758    5.9332 C.ar    8  PHE8       -0.0617
     67 CE1         3.6553   -3.4358   -3.2754 C.ar    4  TYR4       -0.0199
     68 CE2         2.0843   -4.3869   -1.7112 C.ar    4  TYR4       -0.0199
     69 CD         -0.3735    2.4803    3.0822 C.3     2  ARG2        0.1048
     70 C           1.1981   -0.2892    0.0368 C.2     1  ASP1        0.2310
     71 CZ          2.3551   -3.6991   -2.8830 C.ar    4  TYR4        0.1169
     72 CA         -0.1571   -1.1061   -0.0586 C.3     1  ASP1        0.0924
     73 CB         -0.5531   -1.4287    1.3680 C.3     1  ASP1        0.0684
     74 CG         -1.9358   -2.0077    1.3661 C.2     1  ASP1        0.3067
     75 CZ         -1.7316    3.3271    4.8456 C.cat   2  ARG2        0.3765
     76 HA          3.1977   -7.1326   10.2959 H       7  PRO7        0.0597
     77 HB1         0.2205   -7.9267   10.2057 H       7  PRO7        0.0288
     78 HB2         1.3183   -8.1629   11.5769 H       7  PRO7        0.0288
     79 HG1        -0.2946   -5.9382   11.3452 H       7  PRO7        0.0281
     80 HG2         1.3088   -5.8252   12.0906 H       7  PRO7        0.0281
     81 HD1         0.4816   -4.6105    9.5596 H       7  PRO7        0.0465
     82 HD2         2.0425   -4.4923   10.3727 H       7  PRO7        0.0465
     83 HA          1.9605   -3.8510    7.8218 H       6  HIS6        0.0598
     84 HB1         0.2163   -5.3656    7.3886 H       6  HIS6        0.0351
     85 HB2         0.3770   -4.4598    5.9176 H       6  HIS6        0.0351
     86 H           4.1321   -5.1623    6.6436 H       6  HIS6        0.1495
     87 HA          5.3781   -4.9586    4.7519 H       5  ILE5        0.0597
     88 H           4.4267   -8.5221    9.2893 H       8  PHE8        0.1496
     89 HB          6.2031   -4.1565    6.6158 H       5  ILE5        0.0321
     90 HA          3.6084  -10.3755    7.2589 H       8  PHE8        0.0618
     91 HG11        5.0851   -1.8655    6.8975 H       5  ILE5        0.0266
     92 HG12        6.6094   -2.1632    7.6575 H       5  ILE5        0.0266
     93 H           4.0012   -3.1759    3.3430 H       5  ILE5        0.1495
     94 HB1         5.8693   -9.3782    7.4471 H       8  PHE8        0.0337
     95 HB2         6.1549  -10.1916    8.9496 H       8  PHE8        0.0337
     96 HG21        8.4034   -3.2592    6.5814 H       5  ILE5        0.0233
     97 HG22        8.1499   -4.5954    5.4930 H       5  ILE5        0.0233
     98 HG23        8.2697   -2.9207    4.8503 H       5  ILE5        0.0233
     99 HA          3.8077   -2.8562    1.2054 H       4  TYR4        0.0598
    100 HD1         2.5293   -7.6822    5.5593 H       6  HIS6        0.1665
    101 HD11        6.3486   -0.5397    5.0788 H       5  ILE5        0.0230
    102 HD12        6.3240    0.1003    6.7213 H       5  ILE5        0.0230
    103 HD13        7.7813   -0.6879    6.1286 H       5  ILE5        0.0230
    104 HD2        -1.5823   -6.8371    5.5207 H       6  HIS6        0.0848
    105 HA          5.2775    1.1238   -1.7509 H       3  VAL3        0.0597
    106 HB1         6.2784   -3.6121   -0.3749 H       4  TYR4        0.0336
    107 HB2         5.3931   -4.7866    0.6248 H       4  TYR4        0.0336
    108 H           4.7457   -0.5687    1.0493 H       4  TYR4        0.1495
    109 HB          6.3604    2.4880   -0.0573 H       3  VAL3        0.0318
    110 HE1         1.3535   -9.5006    4.3147 H       6  HIS6        0.1027
    111 H           3.3084    0.4783   -0.3422 H       3  VAL3        0.1495
    112 HD1         5.6898  -10.7529    5.2486 H       8  PHE8        0.0620
    113 HD2         6.7722  -12.4790    9.0607 H       8  PHE8        0.0620
    114 HA          1.6776    2.8646    0.2290 H       2  ARG2        0.0594
    115 HG11        7.5878    0.1286    1.4128 H       3  VAL3        0.0233
    116 HG12        7.7378    1.8737    1.6780 H       3  VAL3        0.0233
    117 HG13        6.2203    1.0895    2.0355 H       3  VAL3        0.0233
    118 HG21        7.2416    0.7803   -2.1323 H       3  VAL3        0.0233
    119 HG22        8.1359    2.1123   -1.4874 H       3  VAL3        0.0233
    120 HG23        8.4332    0.4173   -0.9271 H       3  VAL3        0.0233
    121 H           1.7608  -10.8165    8.7393 H       8  PHE8        0.2951
    122 HB1         2.4874    2.2264    3.1339 H       2  ARG2        0.0289
    123 HB2         2.6859    3.7465    2.3260 H       2  ARG2        0.0289
    124 HD1         5.6802   -3.2912   -2.5879 H       4  TYR4        0.0621
    125 HD2         2.9081   -5.3362    0.0136 H       4  TYR4        0.0621
    126 HE1         6.9275  -12.5591    4.1079 H       8  PHE8        0.0618
    127 HE2         8.1215  -14.1674    7.9120 H       8  PHE8        0.0618
    128 HG1         0.9918    3.9490    3.8578 H       2  ARG2        0.0298
    129 HG2         0.4343    4.3075    2.2402 H       2  ARG2        0.0298
    130 H           0.1725    1.2859    0.6145 H       2  ARG2        0.1495
    131 HZ          8.2116  -14.2193    5.4303 H       8  PHE8        0.0618
    132 HE1         3.8817   -2.9535   -4.2217 H       4  TYR4        0.0654
    133 HE2         1.0610   -4.5941   -1.4324 H       4  TYR4        0.0654
    134 HD1        -0.6349    2.0619    2.1149 H       2  ARG2        0.0693
    135 HD2        -0.0397    1.6448    3.7067 H       2  ARG2        0.0693
    136 HA         -0.8869   -0.4829   -0.5728 H       1  ASP1        0.0560
    137 HB1         0.1889   -2.0902    1.8385 H       1  ASP1        0.0398
    138 HB2        -0.5699   -0.5236    1.9728 H       1  ASP1        0.0398
    139 H1          0.2099   -3.1812   -0.2836 H       1  ASP1        0.1189
    140 H2          0.2883   -2.3525   -1.7211 H       1  ASP1        0.1189
    141 HH          1.5048   -3.5764   -4.5412 H       4  TYR4        0.2921
    142 HH11       -0.7955    3.5519    6.5450 H       2  ARG2        0.2546
    143 HH12       -0.2045    2.2936    5.6404 H       2  ARG2        0.2546
    144 HH21       -3.5770    4.0232    4.7554 H       2  ARG2        0.2546
    145 HH22       -2.9743    3.7249    6.2983 H       2  ARG2        0.2546
    146 HD1        -1.0955   -3.5397    2.2339 H       1  ASP1        0.2951
@<TRIPOS>BOND
     1     1    30    2
     2     2    32    2
     3     3    36    2
     4     4    44    1
     5     4   121    1
     6     5    43    2
     7     6    44    2
     8     7    51    2
     9     8    59    2
    10     9    71    1
    11     9   141    1
    12    10    70    2
    13    11    74    1
    14    11   146    1
    15    12    74    2
    16    13    26    1
    17    13    29    1
    18    13    30   am
    19    31    14    1
    20    14    36   am
    21    14    86    1
    22    15    32   am
    23    37    15    1
    24    15    88    1
    25    34    16    1
    26    16    43   am
    27    16    93    1
    28    17    38   ar
    29    17    52   ar
    30    17   100    1
    31    42    18    1
    32    18    51   am
    33    18   108    1
    34    19    46   ar
    35    19    52   ar
    36    48    20    1
    37    20    59   am
    38    20   111    1
    39    56    21    1
    40    21    70   am
    41    21   130    1
    42    22    69    1
    43    22    75    2
    44    72    23    1
    45    23   139    1
    46    23   140    1
    47    24    75    1
    48    24   142    1
    49    24   143    1
    50    25    75    1
    51    25   144    1
    52    25   145    1
    53    26    27    1
    54    27    28    1
    55    27    77    1
    56    27    78    1
    57    28    29    1
    58    28    79    1
    59    28    80    1
    60    29    81    1
    61    29    82    1
    62    30    31    1
    63    31    33    1
    64    31    83    1
    65    33    38    1
    66    33    84    1
    67    33    85    1
    68    34    36    1
    69    34    87    1
    70    35    41    1
    71    35    89    1
    72    37    40    1
    73    37    44    1
    74    37    90    1
    75    38    46   ar
    76    39    45    1
    77    39    91    1
    78    39    92    1
    79    40    47    1
    80    40    94    1
    81    40    95    1
    82    41    96    1
    83    41    97    1
    84    41    98    1
    85    42    43    1
    86    42    49    1
    87    42    99    1
    88    45   101    1
    89    45   102    1
    90    45   103    1
    91    46   104    1
    92    47    54   ar
    93    47    55   ar
    94    48    50    1
    95    48    51    1
    96    48   105    1
    97    49    53    1
    98    49   106    1
    99    49   107    1
   100    50    57    1
   101    50    58    1
   102    50   109    1
   103    52   110    1
   104    53    63   ar
   105    53    64   ar
   106    54    61   ar
   107    54   112    1
   108    55    62   ar
   109    55   113    1
   110    56    59    1
   111    56    60    1
   112    56   114    1
   113    57   115    1
   114    57   116    1
   115    57   117    1
   116    58   118    1
   117    58   119    1
   118    58   120    1
   119    60    65    1
   120    60   122    1
   121    60   123    1
   122    61    66   ar
   123    61   126    1
   124    62    66   ar
   125    62   127    1
   126    63    67   ar
   127    63   124    1
   128    64    68   ar
   129    64   125    1
   130    65    69    1
   131    65   128    1
   132    65   129    1
   133    66   131    1
   134    67    71   ar
   135    67   132    1
   136    68    71   ar
   137    68   133    1
   138    69   134    1
   139    69   135    1
   140    70    72    1
   141    72    73    1
   142    72   136    1
   143    73    74    1
   144    73   137    1
   145    73   138    1
   146    26    76    1
   147    26    32    1
   148    35    39    1
   149    35    34    1
