@<TRIPOS>MOLECULE
anserine
 33 33 0 0 0
SMALL
GASTEIGER

@<TRIPOS>ATOM
      1 O          -1.4315    2.8359   -0.8610 O.3     1  UNL1       -0.4793
      2 OXT         0.4023    3.6603    0.1723 O.2     1  UNL1       -0.2489
      3 O          -2.0567    0.3152    1.5125 O.2     1  UNL1       -0.2758
      4 N          -0.8175    0.3304   -0.4496 N.am    1  UNL1       -0.3020
      5 N           2.8649   -0.7147    0.5440 N.ar    1  UNL1       -0.3370
      6 N           2.5554   -2.5625   -0.6484 N.ar    1  UNL1       -0.2438
      7 N          -4.8032   -2.4287   -0.1980 N.3     1  UNL1       -0.3295
      8 CA          0.1920    1.2561    0.0057 C.3     1  UNL1        0.1256
      9 C           1.5365    1.0077   -0.6926 C.3     1  UNL1        0.0180
     10 C           2.0615   -0.3857   -0.4903 C.ar    1  UNL1        0.0400
     11 C          -0.2506    2.6957   -0.2124 C.2     1  UNL1        0.3256
     12 C          -1.8724   -0.0657    0.3596 C.2     1  UNL1        0.2149
     13 C           1.8747   -1.5149   -1.2165 C.ar    1  UNL1        0.0487
     14 C          -2.7920   -1.0404   -0.3547 C.3     1  UNL1        0.0363
     15 C           3.1413   -2.0469    0.4094 C.ar    1  UNL1        0.0959
     16 C           3.3526    0.1436    1.5974 C.3     1  UNL1        0.0130
     17 C          -3.9574   -1.4852    0.5226 C.3     1  UNL1        0.0014
     18 HA          0.2975    1.1252    1.0897 H       1  UNL1        0.0618
     19 H           2.2775    1.7455   -0.3611 H       1  UNL1        0.0351
     20 H           1.4220    1.1777   -1.7725 H       1  UNL1        0.0351
     21 H          -0.7925    0.0229   -1.4179 H       1  UNL1        0.1495
     22 H           1.2918   -1.6483   -2.1162 H       1  UNL1        0.0848
     23 H          -3.1660   -0.5517   -1.2631 H       1  UNL1        0.0371
     24 H          -2.1950   -1.9086   -0.6606 H       1  UNL1        0.0371
     25 H           3.7700   -2.5862    1.1049 H       1  UNL1        0.1029
     26 H           3.9194   -0.4517    2.3180 H       1  UNL1        0.0456
     27 H           4.0028    0.9016    1.1537 H       1  UNL1        0.0456
     28 H           2.4992    0.6069    2.0977 H       1  UNL1        0.0456
     29 H          -4.5549   -0.6192    0.8293 H       1  UNL1        0.0426
     30 H          -3.5834   -1.9629    1.4350 H       1  UNL1        0.0426
     31 H          -1.6775    3.7786   -0.9755 H       1  UNL1        0.2951
     32 H          -5.1817   -1.9827   -1.0326 H       1  UNL1        0.1182
     33 H          -5.6041   -2.6758    0.3818 H       1  UNL1        0.1182
@<TRIPOS>BOND
     1     1    11    1
     2     1    31    1
     3     2    11    2
     4     3    12    2
     5     4     8    1
     6     4    12   am
     7     4    21    1
     8     5    10   ar
     9     5    15   ar
    10     5    16    1
    11     6    13   ar
    12     6    15   ar
    13     7    17    1
    14     7    32    1
    15     7    33    1
    16     8     9    1
    17     8    11    1
    18     8    18    1
    19     9    10    1
    20     9    19    1
    21     9    20    1
    22    10    13   ar
    23    12    14    1
    24    13    22    1
    25    14    17    1
    26    14    23    1
    27    14    24    1
    28    15    25    1
    29    16    26    1
    30    16    27    1
    31    16    28    1
    32    17    29    1
    33    17    30    1
