@<TRIPOS>MOLECULE
aspartame
 39 39 0 0 0
SMALL
GASTEIGER

@<TRIPOS>ATOM
      1 O          -1.8337    2.9115   -0.4575 O.3     1  UNL1       -0.4666
      2 O           2.1213   -0.0281   -1.6083 O.2     1  UNL1       -0.2741
      3 O          -0.9281    2.0358    1.4665 O.2     1  UNL1       -0.2487
      4 O           5.6253    0.4131   -0.4127 O.3     1  UNL1       -0.4806
      5 O           4.1389    0.9708    1.2123 O.2     1  UNL1       -0.2509
      6 N           0.5352    0.1671    0.0723 N.am    1  UNL1       -0.3008
      7 N           1.9540   -2.5588    0.2571 N.3     1  UNL1       -0.3195
      8 C          -0.3657    1.0282   -0.6567 C.3     1  UNL1        0.1244
      9 C          -1.3701    0.2130   -1.4846 C.3     1  UNL1        0.0012
     10 C           2.4857   -1.2131    0.4761 C.3     1  UNL1        0.0924
     11 C          -2.3150   -0.6407   -0.6694 C.ar    1  UNL1       -0.0451
     12 C           1.7229   -0.2954   -0.4765 C.2     1  UNL1        0.2310
     13 C          -1.0587    2.0398    0.2466 C.2     1  UNL1        0.3277
     14 C           3.9887   -1.2164    0.1958 C.3     1  UNL1        0.0684
     15 C          -1.9526   -1.9395   -0.3540 C.ar    1  UNL1       -0.0585
     16 C          -3.5233   -0.1063   -0.2544 C.ar    1  UNL1       -0.0585
     17 C          -2.8240   -2.7271    0.3982 C.ar    1  UNL1       -0.0615
     18 C          -4.3947   -0.8940    0.4979 C.ar    1  UNL1       -0.0615
     19 C           4.5756    0.1586    0.4068 C.2     1  UNL1        0.3067
     20 C          -4.0450   -2.2044    0.8242 C.ar    1  UNL1       -0.0617
     21 C          -2.5367    3.8858    0.3204 C.3     1  UNL1        0.0817
     22 H           0.2467    1.6211   -1.3488 H       1  UNL1        0.0618
     23 H          -1.9631    0.8843   -2.1203 H       1  UNL1        0.0337
     24 H          -0.8274   -0.4345   -2.1872 H       1  UNL1        0.0337
     25 H           0.2702   -0.1236    1.0091 H       1  UNL1        0.1496
     26 H           2.2977   -0.9132    1.5135 H       1  UNL1        0.0560
     27 H           4.5133   -1.9106    0.8620 H       1  UNL1        0.0398
     28 H           4.1856   -1.5215   -0.8397 H       1  UNL1        0.0398
     29 H          -1.0113   -2.3603   -0.6923 H       1  UNL1        0.0620
     30 H          -3.8117    0.9091   -0.5082 H       1  UNL1        0.0620
     31 H           0.9541   -2.5729    0.4494 H       1  UNL1        0.1189
     32 H           2.0719   -2.8319   -0.7176 H       1  UNL1        0.1189
     33 H          -2.5530   -3.7484    0.6495 H       1  UNL1        0.0618
     34 H          -5.3463   -0.4877    0.8280 H       1  UNL1        0.0618
     35 H          -4.7240   -2.8181    1.4089 H       1  UNL1        0.0618
     36 H          -3.2243    3.3922    1.0138 H       1  UNL1        0.0661
     37 H          -3.1171    4.5115   -0.3628 H       1  UNL1        0.0661
     38 H          -1.8289    4.5201    0.8624 H       1  UNL1        0.0661
     39 H           5.9882    1.3139   -0.2742 H       1  UNL1        0.2951
@<TRIPOS>BOND
     1     1    13    1
     2     1    21    1
     3     2    12    2
     4     3    13    2
     5     4    19    1
     6     4    39    1
     7     5    19    2
     8     6     8    1
     9     6    12   am
    10     6    25    1
    11     7    10    1
    12     7    31    1
    13     7    32    1
    14     8     9    1
    15     8    13    1
    16     8    22    1
    17     9    11    1
    18     9    23    1
    19     9    24    1
    20    10    12    1
    21    10    14    1
    22    10    26    1
    23    11    15   ar
    24    11    16   ar
    25    14    19    1
    26    14    27    1
    27    14    28    1
    28    15    17   ar
    29    15    29    1
    30    16    18   ar
    31    16    30    1
    32    17    20   ar
    33    17    33    1
    34    18    20   ar
    35    18    34    1
    36    20    35    1
    37    21    36    1
    38    21    37    1
    39    21    38    1
