@<TRIPOS>MOLECULE
bradykinin
 149 153 0 0 0
SMALL
GASTEIGER

@<TRIPOS>ATOM
      1 O          -4.8569   -9.5038    3.4653 O.2     2  PRO2       -0.2735
      2 O          -7.1934   -9.6400    0.0991 O.2     1  ARG1       -0.2739
      3 O          -5.4729   -6.7389    5.3326 O.2     3  PRO3       -0.2738
      4 O           1.3033   -1.5438    2.1542 O.2     6  SER6       -0.2735
      5 O           5.1810   -0.4298    1.3455 O.2     7  PRO7       -0.2738
      6 OG         -0.4377   -4.1984    5.0783 O.3     6  SER6       -0.3927
      7 O          -1.9360   -5.0763    1.9529 O.2     4  GLY4       -0.2741
      8 O          -2.8709   -0.5131    4.2946 O.2     5  PHE5       -0.2738
      9 O           4.8018   -5.2631    2.8124 O.2     8  PHE8       -0.2738
     10 O           6.4264   -7.3835    3.1816 O.3     9  ARG9       -0.4793
     11 OXT         7.6412   -8.4819    1.6303 O.2     9  ARG9       -0.2489
     12 N          -6.9731   -8.9051    2.8798 N.am    3  PRO3       -0.2884
     13 N          -5.6607  -11.1984    0.7689 N.am    2  PRO2       -0.2886
     14 N           2.4949   -0.7340    3.9410 N.am    7  PRO7       -0.2883
     15 N          -4.5877   -6.7036    3.2109 N.am    4  GLY4       -0.3052
     16 N          -6.4864   -9.5457   -2.5212 N.3     1  ARG1       -0.3199
     17 N           4.5922   -2.3419    2.4396 N.am    8  PHE8       -0.3022
     18 N          -0.8654   -1.3100    4.4436 N.am    6  SER6       -0.3005
     19 N          -2.9459   -3.8090    3.5421 N.am    5  PHE5       -0.3024
     20 NE         -3.1869   -6.9649   -0.1299 N.pl3   1  ARG1       -0.1138
     21 N           5.9519   -5.6103    0.8781 N.am    9  ARG9       -0.3008
     22 NH1        -4.6546   -5.6766   -1.4831 N.pl3   1  ARG1       -0.2893
     23 NH2        -2.8875   -4.7471   -0.5070 N.pl3   1  ARG1       -0.2893
     24 NE          5.4514  -11.4319   -2.0859 N.pl3   9  ARG9       -0.1138
     25 NH1         7.5999  -12.2412   -1.4460 N.pl3   9  ARG9       -0.2893
     26 NH2         6.0555  -13.6413   -2.1825 N.pl3   9  ARG9       -0.2893
     27 CA         -6.0687  -11.1653    2.1847 C.3     2  PRO2        0.1025
     28 CB         -5.0788  -12.1549    2.8291 C.3     2  PRO2       -0.0243
     29 CA         -6.9055   -7.5904    3.5327 C.3     3  PRO3        0.1023
     30 CG         -4.8666  -13.2205    1.7899 C.3     2  PRO2       -0.0350
     31 CD         -5.0795  -12.4910    0.4431 C.3     2  PRO2        0.0156
     32 CB         -8.0939   -7.6783    4.4989 C.3     3  PRO3       -0.0243
     33 CD         -8.3734   -9.3162    2.7618 C.3     3  PRO3        0.0156
     34 C          -5.9206   -9.8020    2.9182 C.2     2  PRO2        0.2367
     35 CG         -9.1653   -8.3541    3.6426 C.3     3  PRO3       -0.0350
     36 C          -6.2486  -10.3894   -0.1891 C.2     1  ARG1        0.2330
     37 C          -5.5826   -7.0135    4.1378 C.2     3  PRO3        0.2340
     38 CA         -5.7268  -10.4963   -1.6693 C.3     1  ARG1        0.0826
     39 CA          3.5064   -0.1146    3.0737 C.3     7  PRO7        0.1023
     40 CB         -4.2265  -10.2170   -1.8576 C.3     1  ARG1       -0.0263
     41 CB          4.3287    0.7293    4.0631 C.3     7  PRO7       -0.0243
     42 CG          3.3285    1.1763    5.1197 C.3     7  PRO7       -0.0350
     43 CD          2.2738    0.0856    5.1318 C.3     7  PRO7        0.0156
     44 CG         -3.7084   -8.7828   -1.6929 C.3     1  ARG1       -0.0168
     45 CA         -3.2367   -6.3001    3.6171 C.3     4  GLY4        0.0882
     46 C           1.4205   -1.4172    3.3719 C.2     6  SER6        0.2388
     47 C           4.4674   -0.9837    2.1882 C.2     7  PRO7        0.2342
     48 CA          0.4052   -2.0372    4.3627 C.3     6  SER6        0.1228
     49 CD         -3.9396   -8.1989   -0.3050 C.3     1  ARG1        0.1047
     50 C          -2.6511   -5.0243    2.9544 C.2     4  GLY4        0.2308
     51 CA          5.6511   -3.1774    1.7881 C.3     8  PHE8        0.1034
     52 CA         -2.5601   -2.5160    2.9383 C.3     5  PHE5        0.1034
     53 CB          0.3794   -3.5405    4.1156 C.3     6  SER6        0.0711
     54 C          -2.1040   -1.4046    3.9112 C.2     5  PHE5        0.2343
     55 CB          7.0649   -2.7257    2.2594 C.3     8  PHE8       -0.0007
     56 CB         -3.6946   -1.9559    2.0314 C.3     5  PHE5       -0.0007
     57 C           5.4198   -4.7617    1.8668 C.2     8  PHE8        0.2343
     58 CG          7.3892   -2.4745    3.7291 C.ar    8  PHE8       -0.0451
     59 CG         -5.0089   -1.4856    2.6344 C.ar    5  PHE5       -0.0451
     60 CA          5.7375   -7.1222    0.8808 C.3     9  ARG9        0.1203
     61 CZ         -3.5906   -5.8845   -0.6869 C.cat   1  ARG1        0.3765
     62 CB          5.8711   -7.8358   -0.5214 C.3     9  ARG9       -0.0211
     63 CD1         6.6270   -2.9259    4.8125 C.ar    8  PHE8       -0.0585
     64 CD2         8.5699   -1.7566    4.0169 C.ar    8  PHE8       -0.0585
     65 CD1        -5.5233   -0.2299    2.2632 C.ar    5  PHE5       -0.0585
     66 CD2        -5.7815   -2.2907    3.4807 C.ar    5  PHE5       -0.0585
     67 CG          5.6371   -9.3994   -0.5611 C.3     9  ARG9       -0.0164
     68 C           6.7035   -7.7453    1.9043 C.2     9  ARG9        0.3253
     69 CE1         7.0378   -2.6778    6.1322 C.ar    8  PHE8       -0.0615
     70 CE2         8.9903   -1.5295    5.3313 C.ar    8  PHE8       -0.0615
     71 CZ          8.2257   -1.9970    6.3919 C.ar    8  PHE8       -0.0617
     72 CE1        -6.7907    0.1820    2.6810 C.ar    5  PHE5       -0.0615
     73 CE2        -7.0421   -1.8698    3.9146 C.ar    5  PHE5       -0.0615
     74 CD          5.7556   -9.9928   -1.9860 C.3     9  ARG9        0.1048
     75 CZ         -7.5572   -0.6467    3.4938 C.ar    5  PHE5       -0.0617
     76 CZ          6.3279  -12.3446   -1.8854 C.cat   9  ARG9        0.3765
     77 HA         -7.0835  -11.5672    2.2531 H       2  PRO2        0.0597
     78 HB1        -4.1099  -11.6778    3.0344 H       2  PRO2        0.0288
     79 HB2        -5.4433  -12.5587    3.7751 H       2  PRO2        0.0288
     80 HA         -7.1802   -6.8726    2.7457 H       3  PRO3        0.0597
     81 HG1        -3.8482  -13.6379    1.8291 H       2  PRO2        0.0281
     82 HG2        -5.5725  -14.0368    1.8916 H       2  PRO2        0.0281
     83 HD1        -4.1525  -12.3923   -0.0959 H       2  PRO2        0.0465
     84 HD2        -5.7994  -13.0512   -0.1695 H       2  PRO2        0.0465
     85 HB1        -7.8601   -8.3178    5.3595 H       3  PRO3        0.0288
     86 HB2        -8.4243   -6.7055    4.8711 H       3  PRO3        0.0288
     87 HD1        -8.5220  -10.3480    3.0894 H       3  PRO3        0.0465
     88 HD2        -8.7171   -9.2190    1.7296 H       3  PRO3        0.0465
     89 HG1        -9.9287   -8.8735    4.2316 H       3  PRO3        0.0281
     90 HG2        -9.6810   -7.6151    3.0168 H       3  PRO3        0.0281
     91 HA         -5.9547  -11.4958   -2.0119 H       1  ARG1        0.0554
     92 HA          2.9641    0.5521    2.3883 H       7  PRO7        0.0597
     93 HB1        -3.6230  -10.8501   -1.2067 H       1  ARG1        0.0286
     94 HB2        -3.9773  -10.5257   -2.8811 H       1  ARG1        0.0286
     95 HB1         5.1158    0.1309    4.5365 H       7  PRO7        0.0288
     96 HB2         4.8086    1.5888    3.5832 H       7  PRO7        0.0288
     97 HG1         3.7847    1.3076    6.1069 H       7  PRO7        0.0281
     98 HG2         2.8746    2.1366    4.8449 H       7  PRO7        0.0281
     99 HD1         2.3425   -0.5395    6.0260 H       7  PRO7        0.0465
    100 HD2         1.2747    0.5372    5.0918 H       7  PRO7        0.0465
    101 H          -4.6291   -7.2275    2.3400 H       4  GLY4        0.1492
    102 HG1        -2.6284   -8.7936   -1.8982 H       1  ARG1        0.0297
    103 HG2        -4.1433   -8.1374   -2.4635 H       1  ARG1        0.0297
    104 H1         -6.0927   -9.5182   -3.4606 H       1  ARG1        0.1189
    105 H2         -7.4491   -9.8678   -2.6008 H       1  ARG1        0.1189
    106 HA1        -3.1674   -6.1992    4.7033 H       4  GLY4        0.0558
    107 HA2        -2.5743   -7.1310    3.3373 H       4  GLY4        0.0558
    108 HA          0.7931   -1.9267    5.3810 H       6  SER6        0.0618
    109 HD1        -4.9991   -8.0304   -0.0956 H       1  ARG1        0.0693
    110 HD2        -3.5784   -8.9065    0.4516 H       1  ARG1        0.0693
    111 H           4.0758   -2.7357    3.2151 H       8  PHE8        0.1495
    112 HA          5.5918   -2.9441    0.7148 H       8  PHE8        0.0598
    113 H          -0.8357   -0.4696    5.0080 H       6  SER6        0.1496
    114 HA         -1.7111   -2.6980    2.2673 H       5  PHE5        0.0598
    115 HB1         0.0561   -3.7889    3.1033 H       6  SER6        0.0580
    116 HB2         1.3963   -3.9326    4.2374 H       6  SER6        0.0580
    117 H          -3.3986   -3.8006    4.4480 H       5  PHE5        0.1495
    118 HB1         7.8164   -3.4240    1.8736 H       8  PHE8        0.0336
    119 HB2         7.2625   -1.7649    1.7601 H       8  PHE8        0.0336
    120 HB1        -3.2635   -1.1185    1.4637 H       5  PHE5        0.0336
    121 HB2        -3.9655   -2.7110    1.2877 H       5  PHE5        0.0336
    122 H           6.7468   -5.2716    0.3437 H       9  ARG9        0.1496
    123 H          -0.3579   -5.1502    4.8920 H       6  SER6        0.2095
    124 HA          4.7174   -7.3035    1.2390 H       9  ARG9        0.0614
    125 HB1         5.1449   -7.3768   -1.2040 H       9  ARG9        0.0289
    126 HB2         6.8643   -7.6324   -0.9404 H       9  ARG9        0.0289
    127 HD1         5.7071   -3.4822    4.6677 H       8  PHE8        0.0620
    128 HD2         9.1825   -1.3666    3.2055 H       8  PHE8        0.0620
    129 HD1        -4.9393    0.4423    1.6380 H       5  PHE5        0.0620
    130 HD2        -5.4335   -3.2648    3.8049 H       5  PHE5        0.0620
    131 HG1         6.3642   -9.9121    0.0755 H       9  ARG9        0.0298
    132 HG2         4.6459   -9.6355   -0.1562 H       9  ARG9        0.0298
    133 HE1         6.4347   -3.0318    6.9657 H       8  PHE8        0.0618
    134 HE2         9.9182   -0.9948    5.5219 H       8  PHE8        0.0618
    135 HZ          8.5568   -1.8372    7.4153 H       8  PHE8        0.0618
    136 HH11       -4.9948   -4.7347   -1.5981 H       1  ARG1        0.2546
    137 HH12       -5.3492   -6.4066   -1.5570 H       1  ARG1        0.2546
    138 HH21       -2.2110   -4.9056    0.2515 H       1  ARG1        0.2546
    139 HH22       -3.4621   -3.9594   -0.2586 H       1  ARG1        0.2546
    140 HE1        -7.1802    1.1457    2.3638 H       5  PHE5        0.0618
    141 HE2        -7.6275   -2.5079    4.5714 H       5  PHE5        0.0618
    142 HD1         5.0205   -9.4901   -2.6267 H       9  ARG9        0.0693
    143 HD2         6.7354   -9.7795   -2.4272 H       9  ARG9        0.0693
    144 HZ         -8.5543   -0.3414    3.7980 H       5  PHE5        0.0618
    145 H           5.6740   -6.7450    3.2391 H       9  ARG9        0.2951
    146 HH11        7.9473  -13.0527   -0.9471 H       9  ARG9        0.2546
    147 HH12        7.8129  -11.3842   -0.9494 H       9  ARG9        0.2546
    148 HH21        5.3261  -13.7036   -2.8856 H       9  ARG9        0.2546
    149 HH22        6.8636  -14.1863   -2.4573 H       9  ARG9        0.2546
@<TRIPOS>BOND
     1     1    34    2
     2     2    36    2
     3     3    37    2
     4     4    46    2
     5     5    47    2
     6     6    53    1
     7     6   123    1
     8     7    50    2
     9     8    54    2
    10     9    57    2
    11    10    68    1
    12    10   145    1
    13    11    68    2
    14    12    29    1
    15    12    33    1
    16    12    34   am
    17    13    27    1
    18    13    31    1
    19    13    36   am
    20    14    39    1
    21    14    43    1
    22    14    46   am
    23    15    37   am
    24    15    45    1
    25    15   101    1
    26    38    16    1
    27    16   104    1
    28    16   105    1
    29    17    47   am
    30    51    17    1
    31    17   111    1
    32    18    54   am
    33    18   113    1
    34    19    50   am
    35    19   117    1
    36    20    49    1
    37    20    61    2
    38    21    57   am
    39    60    21    1
    40    21   122    1
    41    22    61    1
    42    22   136    1
    43    22   137    1
    44    23    61    1
    45    23   138    1
    46    23   139    1
    47    24    74    1
    48    24    76    2
    49    25    76    1
    50    25   146    1
    51    25   147    1
    52    26    76    1
    53    26   148    1
    54    26   149    1
    55    27    28    1
    56    27    34    1
    57    27    77    1
    58    28    30    1
    59    28    78    1
    60    28    79    1
    61    29    32    1
    62    30    31    1
    63    30    81    1
    64    30    82    1
    65    31    83    1
    66    31    84    1
    67    32    35    1
    68    32    85    1
    69    32    86    1
    70    33    35    1
    71    33    87    1
    72    33    88    1
    73    35    89    1
    74    35    90    1
    75    36    38    1
    76    38    40    1
    77    38    91    1
    78    39    41    1
    79    40    44    1
    80    40    93    1
    81    40    94    1
    82    41    42    1
    83    41    95    1
    84    41    96    1
    85    42    43    1
    86    42    97    1
    87    42    98    1
    88    43    99    1
    89    43   100    1
    90    44    49    1
    91    44   102    1
    92    44   103    1
    93    45    50    1
    94    45   106    1
    95    45   107    1
    96    48    53    1
    97    48   108    1
    98    49   109    1
    99    49   110    1
   100    51    55    1
   101    51    57    1
   102    51   112    1
   103    52    56    1
   104    52   114    1
   105    53   115    1
   106    53   116    1
   107    55    58    1
   108    55   118    1
   109    55   119    1
   110    56    59    1
   111    56   120    1
   112    56   121    1
   113    58    63   ar
   114    58    64   ar
   115    59    65   ar
   116    59    66   ar
   117    60    62    1
   118    60    68    1
   119    60   124    1
   120    62    67    1
   121    62   125    1
   122    62   126    1
   123    63    69   ar
   124    63   127    1
   125    64    70   ar
   126    64   128    1
   127    65    72   ar
   128    65   129    1
   129    66    73   ar
   130    66   130    1
   131    67    74    1
   132    67   131    1
   133    67   132    1
   134    69    71   ar
   135    69   133    1
   136    70    71   ar
   137    70   134    1
   138    71   135    1
   139    72    75   ar
   140    72   140    1
   141    73    75   ar
   142    73   141    1
   143    74   142    1
   144    74   143    1
   145    75   144    1
   146    29    80    1
   147    29    37    1
   148    39    92    1
   149    39    47    1
   150    48    46    1
   151    48    18    1
   152    52    54    1
   153    52    19    1
