@<TRIPOS>MOLECULE
carnosine
 30 30 0 0 0
SMALL
GASTEIGER

@<TRIPOS>ATOM
      1 O          -1.1827    2.8969   -0.5876 O.3     1  HIS1       -0.4793
      2 O          -1.8901    0.1543    1.4985 O.2     0  UNK0       -0.2758
      3 OXT         0.7136    3.5022    0.4837 O.2     1  HIS1       -0.2489
      4 N          -0.6950    0.3333   -0.4828 N.am    1  HIS1       -0.3020
      5 ND1         1.7643   -1.5529   -0.3956 N.ar    1  HIS1       -0.3481
      6 NE2         3.7922   -1.9187    0.4324 N.ar    1  HIS1       -0.2440
      7 N          -4.8172   -2.2295   -0.4376 N.3     0  UNK0       -0.3295
      8 CA          0.3726    1.1474    0.0471 C.3     1  HIS1        0.1256
      9 CB          1.6855    0.9161   -0.7134 C.3     1  HIS1        0.0178
     10 CG          2.3783   -0.3605   -0.2965 C.ar    1  HIS1        0.0376
     11 C          -1.7519   -0.0994    0.3048 C.2     0  UNK0        0.2149
     12 C          -2.7379   -0.9368   -0.4903 C.3     0  UNK0        0.0363
     13 C           0.0023    2.6229    0.0089 C.2     1  HIS1        0.3256
     14 CD2         3.6100   -0.5774    0.2062 C.ar    1  HIS1        0.0485
     15 C          -3.9062   -1.4202    0.3623 C.3     0  UNK0        0.0014
     16 CE1         2.6623   -2.4776    0.0599 C.ar    1  HIS1        0.0935
     17 HA          0.4928    0.8974    1.1094 H       1  HIS1        0.0618
     18 HB1         2.3792    1.7478   -0.5340 H       1  HIS1        0.0351
     19 HB2         1.5096    0.8913   -1.7969 H       1  HIS1        0.0351
     20 H          -0.7045    0.1328   -1.4791 H       1  HIS1        0.1495
     21 H          -3.1047   -0.3280   -1.3261 H       0  UNK0        0.0371
     22 H          -2.1952   -1.7931   -0.9100 H       0  UNK0        0.0371
     23 HD1         0.8301   -1.7409   -0.7360 H       1  HIS1        0.1665
     24 H          -4.4492   -0.5662    0.7827 H       0  UNK0        0.0426
     25 H          -3.5386   -2.0187    1.2031 H       0  UNK0        0.0426
     26 HD2         4.3890    0.1382    0.4251 H       1  HIS1        0.0848
     27 HE1         2.4323   -3.5331    0.0937 H       1  HIS1        0.1027
     28 H          -5.1893   -1.6711   -1.2048 H       0  UNK0        0.1182
     29 H          -5.6173   -2.5010    0.1323 H       0  UNK0        0.1182
     30 H          -1.3805    3.8576   -0.5864 H       1  HIS1        0.2951
@<TRIPOS>BOND
     1     1    13    1
     2     1    30    1
     3     2    11    2
     4     3    13    2
     5     4     8    1
     6     4    11   am
     7     4    20    1
     8     5    10   ar
     9     5    16   ar
    10     5    23    1
    11     6    14   ar
    12     6    16   ar
    13     7    15    1
    14     7    28    1
    15     7    29    1
    16     8     9    1
    17     8    13    1
    18     8    17    1
    19     9    10    1
    20     9    18    1
    21     9    19    1
    22    10    14   ar
    23    11    12    1
    24    12    15    1
    25    12    21    1
    26    12    22    1
    27    14    26    1
    28    15    24    1
    29    15    25    1
    30    16    27    1
