@<TRIPOS>MOLECULE
cyclosporin_a
 196 196 0 0 0
SMALL
GASTEIGER

@<TRIPOS>ATOM
      1 O           2.4245   -6.0308    0.9548 O.3     1  UNL1       -0.3892
      2 O           4.4111  -12.1572    1.8875 O.2     1  UNL1       -0.2735
      3 O           1.2187  -13.0068    2.8356 O.2     1  UNL1       -0.2735
      4 O          -2.0887  -14.4057    7.0901 O.2     1  UNL1       -0.2735
      5 O           1.2318   -6.1245    3.6953 O.2     1  UNL1       -0.2737
      6 O           2.1272  -10.9485    7.8283 O.2     1  UNL1       -0.2736
      7 O           1.5329   -7.6823    5.7429 O.2     1  UNL1       -0.2735
      8 O           4.4268   -1.3404    4.2182 O.2     1  UNL1       -0.2736
      9 O          -0.2431   -3.2764    4.5989 O.2     1  UNL1       -0.2738
     10 O          -2.8316   -9.5107    5.4775 O.2     1  UNL1       -0.2738
     11 O           1.2692   -2.0696    9.1530 O.2     1  UNL1       -0.2739
     12 O           0.2081  -11.8379    1.7751 O.2     1  UNL1       -0.2738
     13 N           2.2572  -14.5470    2.6447 N.am    1  UNL1       -0.2912
     14 N           3.0004  -10.3358    3.0277 N.am    1  UNL1       -0.2890
     15 N          -0.0820  -14.4485    5.9621 N.am    1  UNL1       -0.2914
     16 N           0.0688  -11.7826    7.2657 N.am    1  UNL1       -0.2914
     17 N           2.3223   -4.5045    2.9627 N.am    1  UNL1       -0.3024
     18 N          -0.2567   -7.7389    4.3443 N.am    1  UNL1       -0.2914
     19 N          -0.5488   -5.1654    5.5633 N.am    1  UNL1       -0.3022
     20 N           1.6312   -3.6130    7.5240 N.am    1  UNL1       -0.2917
     21 N           3.0724   -1.3622    6.0987 N.am    1  UNL1       -0.2942
     22 N           1.0036  -11.0859    4.0241 N.am    1  UNL1       -0.3027
     23 N          -2.1003  -10.0484    3.4792 N.am    1  UNL1       -0.3027
     24 C           3.3362  -14.2731    3.3895 C.3     1  UNL1        0.1044
     25 C           1.2606  -13.9927    5.3012 C.3     1  UNL1        0.1023
     26 C           2.6961   -8.2525    2.5718 C.3     1  UNL1        0.1279
     27 C           2.4759  -16.1524    3.7023 C.3     1  UNL1       -0.0195
     28 C           1.5654   -7.2834    1.1790 C.3     1  UNL1        0.0850
     29 C           2.4196  -14.1932    6.4398 C.3     1  UNL1       -0.0234
     30 C          -0.0407   -6.2049    0.8864 C.3     1  UNL1       -0.0122
     31 C           3.3964  -12.1839    2.6462 C.2     1  UNL1        0.2368
     32 C           1.3848  -13.9775    3.4959 C.2     1  UNL1        0.2365
     33 C          -1.1547  -12.3442    6.4912 C.3     1  UNL1        0.1023
     34 C           2.7405  -15.6167    6.9780 C.3     1  UNL1       -0.0446
     35 C          -1.1200  -13.8107    6.6132 C.2     1  UNL1        0.2365
     36 C          -1.3243  -12.2499    4.9769 C.3     1  UNL1       -0.0234
     37 C           2.4025   -6.2346    3.2714 C.2     1  UNL1        0.2367
     38 C          -0.0540   -4.9288   -0.1604 C.3     1  UNL1       -0.0298
     39 C           2.6500  -17.4333    2.6507 C.3     1  UNL1       -0.0605
     40 C           1.6152  -17.4773    4.7094 C.3     1  UNL1       -0.0605
     41 C          -2.1871  -12.9964    3.7901 C.3     1  UNL1       -0.0446
     42 C           2.7408  -14.9072    1.2924 C.3     1  UNL1        0.0040
     43 C          -1.5900   -6.5060    0.4717 C.3     1  UNL1       -0.0597
     44 C           3.8528  -10.9682    4.2883 C.3     1  UNL1        0.0041
     45 C          -0.3379  -15.8174    5.9095 C.3     1  UNL1        0.0040
     46 C           3.7356  -16.4740    6.2024 C.3     1  UNL1       -0.0626
     47 C           3.1406  -15.7828    8.4383 C.3     1  UNL1       -0.0626
     48 C           2.2910   -2.6575    3.6135 C.3     1  UNL1        0.0994
     49 C          -0.0064   -6.2373    6.2822 C.3     1  UNL1        0.1019
     50 C           1.2764  -11.1490    6.9423 C.2     1  UNL1        0.2360
     51 C          -1.6692   -7.8164    4.1828 C.3     1  UNL1        0.1021
     52 C          -1.9730  -14.4857    3.6042 C.3     1  UNL1       -0.0626
     53 C          -3.5627  -12.6168    3.1773 C.3     1  UNL1       -0.0626
     54 C           1.6844   -3.9236    6.1060 C.3     1  UNL1        0.1021
     55 C           0.3958   -5.1782   -1.5501 C.2     1  UNL1       -0.0879
     56 C          -0.0115  -11.9924    8.7122 C.3     1  UNL1        0.0040
     57 C          -0.6348   -6.8079    7.5222 C.3     1  UNL1       -0.0197
     58 C          -2.2675   -7.5441    2.8347 C.3     1  UNL1       -0.0234
     59 C           1.4940  -10.4256    5.6092 C.3     1  UNL1        0.0968
     60 C           3.1671   -4.3188    5.7036 C.3     1  UNL1       -0.0234
     61 C           1.0922   -1.1859    3.7434 C.3     1  UNL1       -0.0288
     62 C           0.4118   -7.3127    5.4430 C.2     1  UNL1        0.2365
     63 C          -3.7810   -7.7961    2.7936 C.3     1  UNL1       -0.0446
     64 C           3.3514   -1.7320    4.6971 C.2     1  UNL1        0.2361
     65 C           3.8969   -5.6190    5.9374 C.3     1  UNL1       -0.0446
     66 C           0.2525   -4.1039    5.3676 C.2     1  UNL1        0.2342
     67 C          -2.2024   -9.1652    4.4849 C.2     1  UNL1        0.2341
     68 C           1.8121   -1.1954    6.9513 C.3     1  UNL1        0.0909
     69 C          -2.0346   -7.2076    7.2106 C.3     1  UNL1       -0.0605
     70 C           0.1464   -8.0192    8.0810 C.3     1  UNL1       -0.0605
     71 C           1.5835   -2.3150    7.9876 C.2     1  UNL1        0.2333
     72 C          -1.1338  -10.3932    2.4609 C.3     1  UNL1        0.0966
     73 C           2.9679   -9.3360    5.8748 C.3     1  UNL1       -0.0381
     74 C           1.6029   -4.6855   -1.8093 C.2     1  UNL1       -0.0910
     75 C           0.4891   -8.7207    3.7575 C.3     1  UNL1        0.0040
     76 C           1.5514    0.4686    4.0920 C.3     1  UNL1       -0.0631
     77 C          -4.3523   -6.8410    3.8063 C.3     1  UNL1       -0.0626
     78 C          -4.5559   -7.7549    1.4870 C.3     1  UNL1       -0.0626
     79 C           0.0566  -11.1964    2.8567 C.2     1  UNL1        0.2337
     80 C           5.1584   -5.6877    5.0366 C.3     1  UNL1       -0.0626
     81 C           4.3473   -5.7281    7.3736 C.3     1  UNL1       -0.0626
     82 C           1.3568   -4.6394    8.4782 C.3     1  UNL1        0.0040
     83 C           4.2640   -1.1573    6.9290 C.3     1  UNL1        0.0037
     84 C          -0.5297   -9.7031    1.1692 C.3     1  UNL1       -0.0381
     85 C           2.1100   -4.4154   -3.1584 C.3     1  UNL1       -0.0468
     86 H           3.4794  -14.0667    4.4503 H       1  UNL1        0.0599
     87 H           1.2399  -12.9168    5.3893 H       1  UNL1        0.0597
     88 H           3.5954   -8.2163    1.8926 H       1  UNL1        0.0623
     89 H           1.3774  -15.9551    3.5340 H       1  UNL1        0.0318
     90 H           1.7937   -7.7668    0.2397 H       1  UNL1        0.0619
     91 H           3.3325  -13.6151    6.2510 H       1  UNL1        0.0290
     92 H           2.0039  -13.6760    7.3139 H       1  UNL1        0.0290
     93 H          -0.1273   -5.6467    1.8314 H       1  UNL1        0.0327
     94 H          -2.0288  -11.9159    6.9883 H       1  UNL1        0.0597
     95 H           1.7719  -16.0942    7.0168 H       1  UNL1        0.0296
     96 H          -1.1592  -11.2035    4.8976 H       1  UNL1        0.0290
     97 H          -0.3986  -12.6332    4.6198 H       1  UNL1        0.0290
     98 H          -1.0782   -4.5071   -0.3418 H       1  UNL1        0.0311
     99 H           0.3648   -4.0091    0.2661 H       1  UNL1        0.0311
    100 H           3.4617  -18.0820    2.9878 H       1  UNL1        0.0233
    101 H           1.7755  -18.1370    2.7167 H       1  UNL1        0.0233
    102 H           2.5411  -17.3169    1.5811 H       1  UNL1        0.0233
    103 H           1.2475  -17.4813    5.7509 H       1  UNL1        0.0233
    104 H           0.6734  -17.8045    4.1808 H       1  UNL1        0.0233
    105 H           2.1929  -18.4187    4.7551 H       1  UNL1        0.0233
    106 H          -1.5778  -12.7373    2.9321 H       1  UNL1        0.0296
    107 H           1.9601  -15.2240    0.6156 H       1  UNL1        0.0429
    108 H           3.4577  -14.1928    0.8971 H       1  UNL1        0.0429
    109 H           3.4403  -15.7603    1.4250 H       1  UNL1        0.0429
    110 H          -2.2451   -5.8483    1.0969 H       1  UNL1        0.0233
    111 H          -1.9765   -6.1181   -0.4887 H       1  UNL1        0.0233
    112 H          -1.9364   -7.5222    0.4088 H       1  UNL1        0.0233
    113 H           3.7210  -11.0406    5.3910 H       1  UNL1        0.0429
    114 H           3.3398  -11.9517    4.4934 H       1  UNL1        0.0429
    115 H           4.9090  -11.2474    4.1359 H       1  UNL1        0.0429
    116 H          -0.4906  -16.2582    6.8912 H       1  UNL1        0.0429
    117 H          -1.0580  -16.1525    5.1742 H       1  UNL1        0.0429
    118 H           0.5946  -16.0228    5.5088 H       1  UNL1        0.0429
    119 H           4.4394  -17.0513    6.7998 H       1  UNL1        0.0232
    120 H           3.2191  -17.3265    5.8361 H       1  UNL1        0.0232
    121 H           4.2443  -15.9992    5.3670 H       1  UNL1        0.0232
    122 H           2.8710  -14.9433    9.0721 H       1  UNL1        0.0232
    123 H           2.6135  -16.6772    8.8080 H       1  UNL1        0.0232
    124 H           4.2069  -16.0025    8.5467 H       1  UNL1        0.0232
    125 H           1.3025   -4.5373    3.0212 H       1  UNL1        0.1495
    126 H           2.6278   -2.3038    2.6359 H       1  UNL1        0.0594
    127 H           1.9436   -5.2472    1.3417 H       1  UNL1        0.2099
    128 H           0.9901   -5.9057    6.4948 H       1  UNL1        0.0597
    129 H          -2.0465   -7.0631    4.8270 H       1  UNL1        0.0597
    130 H           1.6866   -2.9404    5.7004 H       1  UNL1        0.0597
    131 H          -2.5663  -15.0560    4.3099 H       1  UNL1        0.0232
    132 H          -2.2131  -14.8031    2.5818 H       1  UNL1        0.0232
    133 H          -0.9134  -14.7114    3.6730 H       1  UNL1        0.0232
    134 H          -3.8098  -11.5653    3.0186 H       1  UNL1        0.0232
    135 H          -3.5651  -12.9760    2.1308 H       1  UNL1        0.0232
    136 H          -4.3998  -13.0707    3.6943 H       1  UNL1        0.0232
    137 H          -0.2971   -5.4746   -2.3430 H       1  UNL1        0.0569
    138 H           0.8901  -12.5041    9.0724 H       1  UNL1        0.0429
    139 H          -0.0673  -11.0135    9.2043 H       1  UNL1        0.0429
    140 H          -0.8836  -12.5839    8.9813 H       1  UNL1        0.0429
    141 H          -0.6925   -6.0492    8.2810 H       1  UNL1        0.0318
    142 H          -1.9542   -6.5269    2.6874 H       1  UNL1        0.0290
    143 H          -1.8577   -8.1875    2.0922 H       1  UNL1        0.0290
    144 H           0.6881   -9.7430    5.7800 H       1  UNL1        0.0592
    145 H           3.3811   -4.1171    4.6747 H       1  UNL1        0.0290
    146 H           3.8251   -3.5915    6.1757 H       1  UNL1        0.0290
    147 H           0.4373   -1.0782    2.8727 H       1  UNL1        0.0285
    148 H           0.4162   -1.3002    4.5934 H       1  UNL1        0.0285
    149 H          -3.9835   -8.8234    3.1072 H       1  UNL1        0.0296
    150 H           3.2596   -6.4375    5.6581 H       1  UNL1        0.0296
    151 H          -0.9634   -5.3655    4.6543 H       1  UNL1        0.1495
    152 H           1.9056   -0.2657    7.5320 H       1  UNL1        0.0560
    153 H           0.8881   -1.1089    6.3906 H       1  UNL1        0.0560
    154 H           1.8468  -11.1369    3.4876 H       1  UNL1        0.1495
    155 H          -1.9356   -8.1168    6.6512 H       1  UNL1        0.0233
    156 H          -2.6114   -7.4428    8.0921 H       1  UNL1        0.0233
    157 H          -2.5467   -6.4399    6.6248 H       1  UNL1        0.0233
    158 H           1.2136   -7.8173    8.2384 H       1  UNL1        0.0233
    159 H          -0.2872   -8.3734    9.0110 H       1  UNL1        0.0233
    160 H           0.0794   -8.8648    7.3984 H       1  UNL1        0.0233
    161 H          -1.7940  -11.0898    1.9287 H       1  UNL1        0.0592
    162 H           3.1795   -8.6767    5.0167 H       1  UNL1        0.0252
    163 H           2.8712   -8.7898    6.8235 H       1  UNL1        0.0252
    164 H           4.0131   -9.6467    6.0998 H       1  UNL1        0.0252
    165 H           2.1984   -4.3311   -0.9716 H       1  UNL1        0.0566
    166 H           0.5811   -8.7493    2.7078 H       1  UNL1        0.0429
    167 H           1.4943   -8.8094    4.1046 H       1  UNL1        0.0429
    168 H          -0.0425   -9.5206    4.1857 H       1  UNL1        0.0429
    169 H           1.8432    1.0542    3.2084 H       1  UNL1        0.0230
    170 H           0.6924    1.0541    4.5075 H       1  UNL1        0.0230
    171 H           2.3211    0.6458    4.8607 H       1  UNL1        0.0230
    172 H          -2.5895  -10.8185    3.8833 H       1  UNL1        0.1495
    173 H          -4.0760   -5.8210    3.5223 H       1  UNL1        0.0232
    174 H          -5.4226   -6.9658    3.8859 H       1  UNL1        0.0232
    175 H          -3.9465   -7.0345    4.8002 H       1  UNL1        0.0232
    176 H          -4.1020   -8.3273    0.6704 H       1  UNL1        0.0232
    177 H          -5.5211   -8.2426    1.6891 H       1  UNL1        0.0232
    178 H          -4.7702   -6.7370    1.1630 H       1  UNL1        0.0232
    179 H           6.0294   -5.2601    5.5440 H       1  UNL1        0.0232
    180 H           5.3845   -6.7293    4.7904 H       1  UNL1        0.0232
    181 H           5.0560   -5.1515    4.0844 H       1  UNL1        0.0232
    182 H           3.5257   -5.6596    8.0693 H       1  UNL1        0.0232
    183 H           4.8337   -6.6872    7.5397 H       1  UNL1        0.0232
    184 H           5.0376   -4.9142    7.6202 H       1  UNL1        0.0232
    185 H           1.9781   -4.5302    9.3604 H       1  UNL1        0.0429
    186 H           0.3080   -4.5352    8.7390 H       1  UNL1        0.0429
    187 H           1.5943   -5.6209    8.0914 H       1  UNL1        0.0429
    188 H           5.0160   -1.9064    6.6772 H       1  UNL1        0.0429
    189 H           4.6657   -0.1536    6.7912 H       1  UNL1        0.0429
    190 H           4.0192   -1.2954    7.9925 H       1  UNL1        0.0429
    191 H           0.5225  -10.0186    0.9700 H       1  UNL1        0.0252
    192 H          -1.0691  -10.0080    0.2780 H       1  UNL1        0.0252
    193 H          -0.4011   -8.6449    1.1875 H       1  UNL1        0.0252
    194 H           2.2049   -3.3293   -3.2408 H       1  UNL1        0.0272
    195 H           3.0841   -4.8875   -3.2750 H       1  UNL1        0.0272
    196 H           1.4220   -4.7679   -3.9301 H       1  UNL1        0.0272
@<TRIPOS>BOND
     1    28     1    1
     2     1   127    1
     3     2    31    2
     4     3    32    2
     5     4    35    2
     6     5    37    2
     7     6    50    2
     8     7    62    2
     9     8    64    2
    10     9    66    2
    11    10    67    2
    12    11    71    2
    13    12    79    2
    14    13    24    1
    15    13    32   am
    16    13    42    1
    17    14    26    1
    18    14    31   am
    19    14    44    1
    20    15    25    1
    21    15    35   am
    22    15    45    1
    23    16    33    1
    24    16    50   am
    25    16    56    1
    26    17    37   am
    27    17    48    1
    28    17   125    1
    29    18    51    1
    30    18    62   am
    31    18    75    1
    32    19    49    1
    33    19    66   am
    34    19   151    1
    35    20    54    1
    36    20    71   am
    37    20    82    1
    38    21    64   am
    39    21    68    1
    40    21    83    1
    41    22    59    1
    42    22    79   am
    43    22   154    1
    44    23    67   am
    45    23    72    1
    46    23   172    1
    47    24    27    1
    48    24    31    1
    49    24    86    1
    50    25    29    1
    51    25    32    1
    52    25    87    1
    53    26    37    1
    54    27    39    1
    55    27    40    1
    56    27    89    1
    57    28    30    1
    58    28    90    1
    59    29    34    1
    60    29    91    1
    61    29    92    1
    62    30    38    1
    63    30    43    1
    64    30    93    1
    65    33    35    1
    66    34    46    1
    67    34    47    1
    68    34    95    1
    69    36    41    1
    70    36    96    1
    71    36    97    1
    72    38    55    1
    73    38    98    1
    74    38    99    1
    75    39   100    1
    76    39   101    1
    77    39   102    1
    78    40   103    1
    79    40   104    1
    80    40   105    1
    81    41    52    1
    82    41    53    1
    83    41   106    1
    84    42   107    1
    85    42   108    1
    86    42   109    1
    87    43   110    1
    88    43   111    1
    89    43   112    1
    90    44   113    1
    91    44   114    1
    92    44   115    1
    93    45   116    1
    94    45   117    1
    95    45   118    1
    96    46   119    1
    97    46   120    1
    98    46   121    1
    99    47   122    1
   100    47   123    1
   101    47   124    1
   102    48    61    1
   103    48    64    1
   104    48   126    1
   105    49    57    1
   106    49    62    1
   107    49   128    1
   108    50    59    1
   109    51    58    1
   110    51    67    1
   111    51   129    1
   112    52   131    1
   113    52   132    1
   114    52   133    1
   115    53   134    1
   116    53   135    1
   117    53   136    1
   118    54    60    1
   119    54    66    1
   120    54   130    1
   121    55    74    2
   122    55   137    1
   123    56   138    1
   124    56   139    1
   125    56   140    1
   126    57    69    1
   127    57    70    1
   128    57   141    1
   129    58    63    1
   130    58   142    1
   131    58   143    1
   132    59    73    1
   133    59   144    1
   134    60    65    1
   135    60   145    1
   136    60   146    1
   137    61    76    1
   138    61   147    1
   139    61   148    1
   140    63    77    1
   141    63    78    1
   142    63   149    1
   143    65    80    1
   144    65    81    1
   145    65   150    1
   146    68    71    1
   147    68   152    1
   148    68   153    1
   149    69   155    1
   150    69   156    1
   151    69   157    1
   152    70   158    1
   153    70   159    1
   154    70   160    1
   155    72    79    1
   156    73   162    1
   157    73   163    1
   158    73   164    1
   159    74    85    1
   160    74   165    1
   161    75   166    1
   162    75   167    1
   163    75   168    1
   164    76   169    1
   165    76   170    1
   166    76   171    1
   167    77   173    1
   168    77   174    1
   169    77   175    1
   170    78   176    1
   171    78   177    1
   172    78   178    1
   173    80   179    1
   174    80   180    1
   175    80   181    1
   176    81   182    1
   177    81   183    1
   178    81   184    1
   179    82   185    1
   180    82   186    1
   181    82   187    1
   182    83   188    1
   183    83   189    1
   184    83   190    1
   185    84   191    1
   186    84   192    1
   187    84   193    1
   188    85   194    1
   189    85   195    1
   190    85   196    1
   191    26    88    1
   192    26    28    1
   193    33    94    1
   194    33    36    1
   195    72   161    1
   196    72    84    1
