@<TRIPOS>MOLECULE
glutathione
 37 36 0 0 0
SMALL
GASTEIGER

@<TRIPOS>ATOM
      1 SG         -1.7509   -1.5088   -2.1175 S.3     1  UNL1       -0.1759
      2 O           1.2983    2.0308   -0.8892 O.2     1  UNL1       -0.2758
      3 O          -2.1637   -0.2769    1.4389 O.2     1  UNL1       -0.2737
      4 O           4.4181   -2.0946    0.9251 O.3     1  UNL1       -0.4795
      5 OXT         5.7469   -1.3999   -0.7759 O.2     1  UNL1       -0.2493
      6 O          -4.9838   -1.1600   -0.5671 O.3     1  UNL1       -0.4795
      7 OXT        -6.6057   -0.8539    0.9897 O.2     1  UNL1       -0.2492
      8 N          -0.0140    0.2979   -0.0702 N.am    1  UNL1       -0.3033
      9 N           6.0965    1.0018    0.5309 N.3     1  UNL1       -0.3184
     10 N          -3.6061    0.9555    0.1037 N.am    1  UNL1       -0.3033
     11 C           3.6846    0.9528    0.1116 C.3     1  UNL1       -0.0191
     12 C           2.3556    0.2273    0.3324 C.3     1  UNL1        0.0259
     13 CA         -1.2834    0.7853   -0.5578 C.3     1  UNL1        0.1081
     14 CA          4.8663    0.2491    0.7881 C.3     1  UNL1        0.1037
     15 C           1.1809    0.9707   -0.2805 C.2     1  UNL1        0.2137
     16 CB         -1.5867    0.3012   -1.9779 C.3     1  UNL1        0.0177
     17 C          -2.3722    0.4241    0.4507 C.2     1  ACE1        0.2346
     18 C           5.0800   -1.1415    0.2183 C.2     1  UNL1        0.3217
     19 CA         -4.7985    0.7329    0.8876 C.3     1  UNL1        0.1089
     20 C          -5.5621   -0.4936    0.4591 C.2     1  UNL1        0.3221
     21 H           3.6029    1.9786    0.4951 H       1  UNL1        0.0290
     22 H           3.8644    1.0381   -0.9689 H       1  UNL1        0.0290
     23 H           2.3815   -0.7699   -0.1211 H       1  UNL1        0.0359
     24 H           2.1658    0.1108    1.4059 H       1  UNL1        0.0359
     25 HA         -1.2286    1.8818   -0.5803 H       1  UNL1        0.0603
     26 HA          4.7170    0.1804    1.8714 H       1  UNL1        0.0574
     27 H          -0.0001   -0.5881    0.4275 H       1  UNL1        0.1495
     28 HB1        -2.5107    0.7446   -2.3611 H       1  UNL1        0.0397
     29 HB2        -0.7810    0.6059   -2.6549 H       1  UNL1        0.0397
     30 H1          6.8683    0.5812    1.0476 H       1  UNL1        0.1190
     31 H2          5.9982    1.9500    0.8920 H       1  UNL1        0.1190
     32 H          -3.6891    1.5405   -0.7219 H       1  UNL1        0.1493
     33 HA1        -5.4410    1.6077    0.7547 H       1  UNL1        0.0577
     34 HA2        -4.5240    0.6226    1.9408 H       1  UNL1        0.0577
     35 HG         -1.9840   -1.5383   -3.4378 H       1  UNL1        0.1017
     36 H           4.5490   -2.9890    0.5440 H       1  UNL1        0.2951
     37 H          -5.4986   -1.9538   -0.8264 H       1  UNL1        0.2951
@<TRIPOS>BOND
     1     1    16    1
     2     1    35    1
     3     2    15    2
     4     3    17    2
     5     4    18    1
     6     4    36    1
     7     5    18    2
     8     6    20    1
     9     6    37    1
    10     7    20    2
    11     8    13    1
    12     8    15   am
    13     8    27    1
    14     9    14    1
    15     9    30    1
    16     9    31    1
    17    10    17   am
    18    10    19    1
    19    10    32    1
    20    11    12    1
    21    11    14    1
    22    11    21    1
    23    11    22    1
    24    12    15    1
    25    12    23    1
    26    12    24    1
    27    13    16    1
    28    13    17    1
    29    13    25    1
    30    14    18    1
    31    14    26    1
    32    16    28    1
    33    16    29    1
    34    19    20    1
    35    19    33    1
    36    19    34    1
