@<TRIPOS>MOLECULE
glycylglycine
 17 16 0 0 0
SMALL
GASTEIGER

@<TRIPOS>ATOM
      1 O           1.1192   -0.9807    0.9350 O.2     1  GLY1       -0.2744
      2 O          -1.6980    1.2320    0.5903 O.3     2  GLY2       -0.4795
      3 OXT        -3.2962   -0.3376    0.2304 O.2     2  GLY2       -0.2492
      4 N           0.1194    0.0665   -0.8809 N.am    2  GLY2       -0.3038
      5 N           3.5584    0.0170    0.1638 N.3     1  GLY1       -0.3225
      6 CA         -1.1505   -0.6217   -0.8231 C.3     2  GLY2        0.1089
      7 C           1.1558   -0.1725    0.0097 C.2     1  GLY1        0.2271
      8 CA          2.3540    0.7121   -0.2674 C.3     1  GLY1        0.0707
      9 C          -2.1620    0.0850    0.0422 C.2     2  GLY2        0.3221
     10 HA1        -0.9953   -1.6290   -0.4254 H       2  GLY2        0.0577
     11 HA2        -1.5383   -0.6729   -1.8442 H       2  GLY2        0.0577
     12 H           0.2322    0.7805   -1.5946 H       2  GLY2        0.1493
     13 HA1         2.2350    1.6486    0.2858 H       1  GLY1        0.0518
     14 HA2         2.4304    0.9444   -1.3339 H       1  GLY1        0.0518
     15 H1          3.6446   -0.8687   -0.3332 H       1  GLY1        0.1186
     16 H2          3.4912   -0.2124    1.1546 H       1  GLY1        0.1186
     17 H          -2.3743    1.6726    1.1478 H       2  GLY2        0.2951
@<TRIPOS>BOND
     1     1     7    2
     2     2     9    1
     3     2    17    1
     4     3     9    2
     5     4     6    1
     6     4     7   am
     7     4    12    1
     8     5     8    1
     9     5    15    1
    10     5    16    1
    11     6     9    1
    12     6    10    1
    13     6    11    1
    14     7     8    1
    15     8    13    1
    16     8    14    1
