@<TRIPOS>MOLECULE
gramicidin_s
 174 178 0 0 0
SMALL
GASTEIGER

@<TRIPOS>ATOM
      1 O          12.1217    4.1461  -60.3933 O.2    10  PHE10      -0.2735
      2 O          13.3112   -0.0899  -60.2596 O.2     1  PRO1       -0.2738
      3 O           4.1640    4.0181  -55.7445 O.2     5  PHE5       -0.2735
      4 O           7.2324   -0.1292  -53.0819 O.2     6  PRO6       -0.2738
      5 O           8.6399    4.3306  -61.6481 O.2     2  VAL2       -0.2738
      6 O          11.9545    3.3268  -55.1686 O.2     7  VAL7       -0.2738
      7 O          12.9952   -1.2120  -57.4085 O.2     9  LEU9       -0.2738
      8 O           6.2476   -1.6614  -56.8851 O.2     4  LEU4       -0.2738
      9 O           8.1949    4.5442  -54.6137 O.2     3  UNK3       -0.2738
     10 O           8.4910    0.2796  -59.6454 O.2     8  UNK8       -0.2738
     11 N          13.8497    3.5279  -59.4438 N.am    1  PRO1       -0.2884
     12 N           5.0577    2.5533  -54.0993 N.am    6  PRO6       -0.2884
     13 N          11.5731    1.3171  -60.4776 N.am    2  VAL2       -0.3022
     14 N           8.9300    1.4908  -52.9156 N.am    7  VAL7       -0.3022
     15 N          12.7286    1.0587  -57.9370 N.am   10  PHE10      -0.3022
     16 N           4.8445    0.0667  -56.3512 N.am    5  PHE5       -0.3022
     17 N           9.0418    4.6587  -59.2555 N.am    3  UNK3       -0.3025
     18 N          10.0655    3.2385  -56.4440 N.am    8  UNK8       -0.3025
     19 N           9.6123   -0.3180  -58.0273 N.am    9  LEU9       -0.3025
     20 N           8.5334    1.9468  -55.0982 N.am    4  LEU4       -0.3025
     21 N           8.7678    7.8957  -55.4165 N.3     3  UNK3       -0.3300
     22 N           4.7089    6.7156  -57.8093 N.3     8  UNK8       -0.3300
     23 CA         14.2103    2.3209  -60.0795 C.3     1  PRO1        0.1023
     24 CA          6.4514    2.1814  -53.3700 C.3     6  PRO6        0.1023
     25 CB         15.4075    2.0646  -59.1399 C.3     1  PRO1       -0.0243
     26 CB          6.1146    2.2561  -51.8539 C.3     6  PRO6       -0.0243
     27 CG         15.4434    3.2508  -58.0346 C.3     1  PRO1       -0.0350
     28 CG          4.8345    3.0176  -51.7828 C.3     6  PRO6       -0.0350
     29 CD         14.5359    4.3138  -58.5164 C.3     1  PRO1        0.0156
     30 CD          4.7169    3.6651  -53.1584 C.3     6  PRO6        0.0156
     31 C          12.5986    3.5734  -59.4174 C.2    10  PHE10       0.2368
     32 C          12.9688    1.0999  -60.3627 C.2     1  PRO1        0.2342
     33 C           4.5318    2.8463  -55.5177 C.2     5  PHE5        0.2368
     34 C           7.5143    1.0681  -53.0752 C.2     6  PRO6        0.2342
     35 CA         12.1631    2.5483  -58.2296 C.3    10  PHE10       0.1036
     36 CA          4.1110    1.6222  -56.8779 C.3     5  PHE5        0.1036
     37 CA         10.4188    2.2712  -61.3505 C.3     2  VAL2        0.1017
     38 CA         10.0703    2.7160  -53.4455 C.3     7  VAL7        0.1017
     39 CB         10.8449    2.8910  -58.7588 C.3    10  PHE10      -0.0007
     40 CB          4.3904    2.0558  -58.7090 C.3     5  PHE5       -0.0007
     41 CB         10.0251    0.9716  -62.2315 C.3     2  VAL2       -0.0197
     42 CB         10.0295    3.9786  -52.5813 C.3     7  VAL7       -0.0197
     43 CA         10.9546   -0.2447  -56.9727 C.3     9  LEU9        0.0996
     44 CA          7.9984   -0.0400  -55.4758 C.3     4  LEU4        0.0996
     45 C           9.4127    3.8771  -60.7552 C.2     2  VAL2        0.2342
     46 C          10.7278    3.0841  -55.0937 C.2     7  VAL7        0.2342
     47 C          12.3054   -0.2034  -57.4846 C.2     9  LEU9        0.2340
     48 C           6.2470   -0.5822  -56.2335 C.2     4  LEU4        0.2340
     49 C           9.1463    4.8642  -57.3032 C.3     3  UNK3        0.0995
     50 C           8.4384    2.8310  -57.5947 C.3     8  UNK8        0.0995
     51 CB         10.8997   -0.0330  -55.1055 C.3     9  LEU9       -0.0236
     52 CB          8.9648   -1.6148  -56.0677 C.3     4  LEU4       -0.0236
     53 CG          9.7052    2.1348  -58.6939 C.ar   10  PHE10      -0.0451
     54 CG          4.7459    0.8879  -59.8377 C.ar    5  PHE5       -0.0451
     55 CG1         9.0462    1.1881  -63.3389 C.3     2  VAL2       -0.0605
     56 CG2        11.3731    0.3329  -62.7985 C.3     2  VAL2       -0.0605
     57 CG1         9.9269    3.7169  -51.0909 C.3     7  VAL7       -0.0605
     58 CG2        11.2474    4.8593  -52.8798 C.3     7  VAL7       -0.0605
     59 CG         11.2631   -0.8044  -53.6465 C.3     9  LEU9       -0.0446
     60 CG          9.2198   -2.6581  -55.0767 C.3     4  LEU4       -0.0446
     61 C          10.2344    6.1036  -57.1014 C.3     3  UNK3       -0.0248
     62 C           7.0116    4.3035  -57.8033 C.3     8  UNK8       -0.0248
     63 C           8.4917    3.8200  -55.5778 C.2     3  UNK3        0.2339
     64 C           8.4929    0.7285  -58.4234 C.2     8  UNK8        0.2339
     65 C           9.7834    7.4549  -57.5873 C.3     3  UNK3       -0.0385
     66 C           6.4545    5.3205  -59.0109 C.3     8  UNK8       -0.0385
     67 CD1         9.3384    1.4368  -56.9994 C.ar   10  PHE10      -0.0585
     68 CD2         8.0592    2.4081  -59.5348 C.ar   10  PHE10      -0.0585
     69 CD1         3.8373   -0.0875  -59.7669 C.ar    5  PHE5       -0.0585
     70 CD2         5.8647    0.5333  -60.7486 C.ar    5  PHE5       -0.0585
     71 CD1        12.0145    0.1469  -52.6743 C.3     9  LEU9       -0.0626
     72 CD2        10.1871   -1.4978  -52.5557 C.3     9  LEU9       -0.0626
     73 CD1         7.8443   -3.1350  -54.8015 C.3     4  LEU4       -0.0626
     74 CD2        10.5771   -3.4537  -55.1034 C.3     4  LEU4       -0.0626
     75 C           8.5190    7.8056  -56.8504 C.3     3  UNK3       -0.0068
     76 C           5.0157    5.9297  -58.9945 C.3     8  UNK8       -0.0068
     77 CE1         7.5220    1.4085  -56.6919 C.ar   10  PHE10      -0.0615
     78 CE2         6.7102    1.9314  -58.7479 C.ar   10  PHE10      -0.0615
     79 CE1         3.7596   -0.9855  -60.8166 C.ar    5  PHE5       -0.0615
     80 CE2         5.8670   -0.3986  -61.7738 C.ar    5  PHE5       -0.0615
     81 CZ          6.4951    1.7252  -57.3987 C.ar   10  PHE10      -0.0617
     82 CZ          4.7051   -1.0896  -61.8578 C.ar    5  PHE5       -0.0617
     83 HA         14.4152    2.7074  -61.0748 H       1  PRO1        0.0597
     84 HA          7.0507    3.0628  -53.5723 H       6  PRO6        0.0597
     85 HB1        15.2942    1.1457  -58.5632 H       1  PRO1        0.0288
     86 HB2        16.2633    1.9177  -59.7846 H       1  PRO1        0.0288
     87 HB1         5.9793    1.2636  -51.3913 H       6  PRO6        0.0288
     88 HB2         6.9394    2.7220  -51.2969 H       6  PRO6        0.0288
     89 HG1        16.2717    3.7107  -57.4859 H       1  PRO1        0.0281
     90 HG2        14.9472    2.7481  -57.1963 H       1  PRO1        0.0281
     91 HG1         4.8454    3.6801  -50.9147 H       6  PRO6        0.0281
     92 HG2         4.0325    2.2843  -51.6640 H       6  PRO6        0.0281
     93 HD1        13.8868    4.7309  -57.7126 H       1  PRO1        0.0465
     94 HD2        14.7710    5.1605  -59.1686 H       1  PRO1        0.0465
     95 HD1         3.7542    4.1396  -53.3150 H       6  PRO6        0.0465
     96 HD2         5.4945    4.4528  -53.2449 H       6  PRO6        0.0465
     97 HA         12.4513    3.0400  -57.3118 H      10  PHE10       0.0598
     98 HA          3.0289    1.5670  -56.8956 H       5  PHE5        0.0598
     99 HA         11.0621    2.8098  -62.0443 H       2  VAL2        0.0597
    100 HA         10.9518    2.2034  -53.0780 H       7  VAL7        0.0597
    101 H          11.0380    0.5208  -60.0964 H       2  VAL2        0.1495
    102 H           9.4363    0.6244  -52.9212 H       7  VAL7        0.1495
    103 HB1        10.8138    3.9779  -58.7814 H      10  PHE10       0.0336
    104 HB2        10.8182    2.8847  -59.7610 H      10  PHE10       0.0336
    105 HB1         3.9745    2.8460  -59.3869 H       5  PHE5        0.0336
    106 HB2         5.0418    2.9167  -58.5351 H       5  PHE5        0.0336
    107 HB          9.6186    0.1466  -61.6196 H       2  VAL2        0.0318
    108 HB          9.1363    4.5454  -52.7982 H       7  VAL7        0.0318
    109 H          13.6816    0.8810  -58.1414 H      10  PHE10       0.1495
    110 H           4.1882   -0.6490  -56.6741 H       5  PHE5        0.1495
    111 HA         11.0129    0.7530  -57.2734 H       9  LEU9        0.0594
    112 HA          8.3144   -0.1100  -56.4990 H       4  LEU4        0.0594
    113 H          10.0497    4.5362  -57.5861 H       3  UNK3        0.0594
    114 H           7.6638    3.1261  -56.8233 H       8  UNK8        0.0594
    115 HB1        11.4231    0.9094  -55.0153 H       9  LEU9        0.0290
    116 HB2         9.8818    0.1474  -54.8633 H       9  LEU9        0.0290
    117 HB1         8.5234   -2.0700  -56.9871 H       4  LEU4        0.0290
    118 HB2         9.9821   -1.6483  -56.4036 H       4  LEU4        0.0290
    119 HG11        9.3701    2.0292  -63.9447 H       2  VAL2        0.0233
    120 HG12        8.9762    0.2898  -63.9687 H       2  VAL2        0.0233
    121 HG13        8.0601    1.3777  -62.9151 H       2  VAL2        0.0233
    122 HG21       11.7597   -0.4370  -62.1078 H       2  VAL2        0.0233
    123 HG22       11.3015   -0.1775  -63.7561 H       2  VAL2        0.0233
    124 HG23       12.1567    1.0993  -62.8828 H       2  VAL2        0.0233
    125 HG11       10.7341    3.0909  -50.7034 H       7  VAL7        0.0233
    126 HG12        9.9418    4.6805  -50.5728 H       7  VAL7        0.0233
    127 HG13        8.9724    3.2439  -50.8565 H       7  VAL7        0.0233
    128 HG21       11.3081    5.1338  -53.9361 H       7  VAL7        0.0233
    129 HG22       11.1776    5.8059  -52.3476 H       7  VAL7        0.0233
    130 HG23       12.1830    4.3544  -52.6064 H       7  VAL7        0.0233
    131 H           8.4678    5.3940  -59.6188 H       3  UNK3        0.1495
    132 H          10.9134    3.5766  -56.8665 H       8  UNK8        0.1495
    133 HG         11.9920   -1.5500  -53.9226 H       9  LEU9        0.0296
    134 HG          9.4425   -1.9009  -54.3992 H       4  LEU4        0.0296
    135 H           9.5233   -1.0237  -58.7413 H       9  LEU9        0.1495
    136 H           8.5683    1.9893  -54.1463 H       4  LEU4        0.1495
    137 H          10.6606    6.0941  -56.0917 H       3  UNK3        0.0288
    138 H          11.1418    5.9142  -57.7273 H       3  UNK3        0.0288
    139 H           6.0437    3.9689  -57.4291 H       8  UNK8        0.0288
    140 H           7.0803    5.0747  -56.9609 H       8  UNK8        0.0288
    141 H          10.5760    8.2028  -57.4351 H       3  UNK3        0.0278
    142 H           9.6204    7.4113  -58.6728 H       3  UNK3        0.0278
    143 H           7.0585    6.2411  -59.0485 H       8  UNK8        0.0278
    144 H           6.5011    4.7903  -59.9569 H       8  UNK8        0.0278
    145 HD1        10.0670    1.4253  -56.1820 H      10  PHE10       0.0620
    146 HD2         7.6663    2.7949  -60.4585 H      10  PHE10       0.0620
    147 HD1         3.1689   -0.0616  -58.9287 H       5  PHE5        0.0620
    148 HD2         6.8327    0.2557  -60.3312 H       5  PHE5        0.0620
    149 HD11       11.3810    0.5266  -51.8527 H       9  LEU9        0.0232
    150 HD12       12.8018   -0.4264  -52.1872 H       9  LEU9        0.0232
    151 HD13       12.4948    0.9957  -53.1620 H       9  LEU9        0.0232
    152 HD21        9.4107   -2.2171  -52.8312 H       9  LEU9        0.0232
    153 HD22       10.7690   -2.1197  -51.8746 H       9  LEU9        0.0232
    154 HD23        9.5972   -0.8186  -51.9267 H       9  LEU9        0.0232
    155 HD11        7.4718   -3.8059  -55.5741 H       4  LEU4        0.0232
    156 HD12        7.6712   -3.4045  -53.7729 H       4  LEU4        0.0232
    157 HD13        7.2088   -2.2501  -54.8827 H       4  LEU4        0.0232
    158 HD21       11.4318   -2.7895  -55.3434 H       4  LEU4        0.0232
    159 HD22       10.8325   -3.8237  -54.1002 H       4  LEU4        0.0232
    160 HD23       10.6997   -4.2519  -55.8371 H       4  LEU4        0.0232
    161 H           8.0919    8.7256  -57.2452 H       3  UNK3        0.0422
    162 H           7.7905    7.0173  -57.0226 H       3  UNK3        0.0422
    163 H           4.9130    6.6039  -59.8651 H       8  UNK8        0.0422
    164 H           4.2611    5.1549  -59.1370 H       8  UNK8        0.0422
    165 HE1         7.0153    1.4914  -55.6414 H      10  PHE10       0.0618
    166 HE2         6.5143    0.7983  -58.7560 H      10  PHE10       0.0618
    167 HE1         2.8750   -1.5904  -60.8183 H       5  PHE5        0.0618
    168 HE2         6.7849   -0.6987  -62.2991 H       5  PHE5        0.0618
    169 HZ          5.8082    1.6821  -56.6106 H      10  PHE10       0.0618
    170 HZ          4.5653   -1.7739  -62.6771 H       5  PHE5        0.0618
    171 H           7.8745    7.8094  -54.9347 H       3  UNK3        0.1182
    172 H           9.3096    7.1021  -55.0744 H       3  UNK3        0.1182
    173 H           3.7052    6.9212  -57.8057 H       8  UNK8        0.1182
    174 H           4.8558    6.1454  -56.9776 H       8  UNK8        0.1182
@<TRIPOS>BOND
     1    11    23    1
     2    11    29    1
     3    11    31   am
     4    12    24    1
     5    12    30    1
     6    12    33   am
     7    13    32   am
     8    13    37    1
     9    14    34   am
    10    14    38    1
    11    15    35    1
    12    15    47   am
    13    16    36    1
    14    16    48   am
    15    17    45   am
    16    17    49    1
    17    18    46   am
    18    18    50    1
    19    19    43    1
    20    19    64   am
    21    20    44    1
    22    20    63   am
    23    21    75    1
    24    21   171    1
    25    21   172    1
    26    22    76    1
    27    22   173    1
    28    22   174    1
    29    23    25    1
    30    23    32    1
    31    24    26    1
    32    24    34    1
    33    25    27    1
    34    26    28    1
    35    27    29    1
    36    28    30    1
    37    31    35    1
    38    33    36    1
    39    37    45    1
    40    38    46    1
    41    39    53    1
    42    39   103    1
    43    39   104    1
    44    40    54    1
    45    40   105    1
    46    40   106    1
    47    41    55    1
    48    41    56    1
    49    41   107    1
    50    42    57    1
    51    42    58    1
    52    42   108    1
    53    43    47    1
    54    44    48    1
    55    49    63    1
    56    50    64    1
    57    51    59    1
    58    51   115    1
    59    51   116    1
    60    52    60    1
    61    52   117    1
    62    52   118    1
    63    53    67   ar
    64    53    68   ar
    65    54    69   ar
    66    54    70   ar
    67    55   119    1
    68    55   120    1
    69    55   121    1
    70    56   122    1
    71    56   123    1
    72    56   124    1
    73    57   125    1
    74    57   126    1
    75    57   127    1
    76    58   128    1
    77    58   129    1
    78    58   130    1
    79    59    71    1
    80    59    72    1
    81    59   133    1
    82    60    73    1
    83    60    74    1
    84    60   134    1
    85    61    65    1
    86    61   137    1
    87    61   138    1
    88    62    66    1
    89    62   139    1
    90    62   140    1
    91    65    75    1
    92    65   141    1
    93    65   142    1
    94    66    76    1
    95    66   143    1
    96    66   144    1
    97    67    77   ar
    98    67   145    1
    99    68    78   ar
   100    68   146    1
   101    69    79   ar
   102    69   147    1
   103    70    80   ar
   104    70   148    1
   105    71   149    1
   106    71   150    1
   107    71   151    1
   108    72   152    1
   109    72   153    1
   110    72   154    1
   111    73   155    1
   112    73   156    1
   113    73   157    1
   114    74   158    1
   115    74   159    1
   116    74   160    1
   117    75   161    1
   118    75   162    1
   119    76   163    1
   120    76   164    1
   121    77    81   ar
   122    77   165    1
   123    78    81   ar
   124    78   166    1
   125    79    82   ar
   126    79   167    1
   127    80    82   ar
   128    80   168    1
   129    81   169    1
   130    82   170    1
   131    13   101    1
   132    14   102    1
   133    15   109    1
   134    16   110    1
   135    17   131    1
   136    18   132    1
   137    19   135    1
   138    20   136    1
   139    23    83    1
   140    24    84    1
   141    25    85    1
   142    25    86    1
   143    26    87    1
   144    26    88    1
   145    27    89    1
   146    27    90    1
   147    28    91    1
   148    28    92    1
   149    29    93    1
   150    29    94    1
   151    30    95    1
   152    30    96    1
   153     1    31    2
   154     2    32    2
   155     3    33    2
   156     4    34    2
   157    43    51    1
   158    43   111    1
   159    44    52    1
   160    44   112    1
   161     5    45    2
   162     6    46    2
   163     7    47    2
   164     8    48    2
   165    49    61    1
   166    49   113    1
   167     9    63    2
   168    10    64    2
   169    35    97    1
   170    35    39    1
   171    36    98    1
   172    36    40    1
   173    37    99    1
   174    37    41    1
   175    38   100    1
   176    38    42    1
   177    50   114    1
   178    50    62    1
