@<TRIPOS>MOLECULE
leu_enkephalin
 77 78 0 0 0
SMALL
GASTEIGER

@<TRIPOS>ATOM
      1 O           2.2971    1.1375   -0.9284 O.2     4  PHE4       -0.2738
      2 O           3.7112    4.5884   -0.3244 O.3     5  LEU5       -0.4793
      3 OXT         4.8147    3.1551    1.0224 O.2     5  LEU5       -0.2489
      4 O           3.7342   -2.3798    2.7234 O.2     3  GLY3       -0.2741
      5 O          -1.1406   -0.6722    7.6099 O.2     1  TYR1       -0.2741
      6 O          -0.7841   -1.2148    3.3831 O.2     2  GLY2       -0.2741
      7 OH          3.8020    4.7798   12.6356 O.3     1  TYR1       -0.5068
      8 N           2.5128    1.6121    1.2782 N.am    5  LEU5       -0.3008
      9 N           2.0948   -1.0361    1.8760 N.am    4  PHE4       -0.3024
     10 N           1.0840   -0.7995    4.6201 N.am    3  GLY3       -0.3054
     11 N          -0.3495    1.0192    6.2927 N.am    2  GLY2       -0.3054
     12 N          -0.2672    0.4659    9.9869 N.3     1  TYR1       -0.3197
     13 CB          1.8808    3.7546    2.2835 C.3     5  LEU5       -0.0218
     14 CG          1.6096    5.2692    2.1680 C.3     5  LEU5       -0.0445
     15 CA          2.3821    3.0543    1.0132 C.3     5  LEU5        0.1205
     16 CA          2.7268   -0.7704    0.5784 C.3     4  PHE4        0.1033
     17 CD1         0.5853    5.6177    1.0867 C.3     5  LEU5       -0.0626
     18 CD2         1.1146    5.8018    3.5190 C.3     5  LEU5       -0.0626
     19 C           2.4674    0.7250    0.2187 C.2     4  PHE4        0.2343
     20 CB          2.1409   -1.5762   -0.6119 C.3     4  PHE4       -0.0007
     21 C           3.7562    3.5781    0.5767 C.2     5  LEU5        0.3253
     22 CG          2.1518   -3.0810   -0.7345 C.ar    4  PHE4       -0.0451
     23 C           2.6640   -1.7942    2.8685 C.2     3  GLY3        0.2308
     24 CD1         1.1782   -3.6439   -1.5861 C.ar    4  PHE4       -0.0585
     25 CD2         3.1153   -3.9297   -0.1869 C.ar    4  PHE4       -0.0585
     26 CA          1.8154   -1.9758    4.1457 C.3     3  GLY3        0.0882
     27 CA         -0.1057    1.2555    8.7518 C.3     1  TYR1        0.0863
     28 CB          1.3562    1.7051    8.5527 C.3     1  TYR1       -0.0039
     29 CE1         1.1291   -5.0129   -1.8418 C.ar    4  PHE4       -0.0615
     30 CE2         3.0647   -5.3074   -0.4402 C.ar    4  PHE4       -0.0615
     31 CG          1.9634    2.5274    9.6651 C.ar    1  TYR1       -0.0452
     32 C          -0.5712    0.4124    7.5202 C.2     1  TYR1        0.2306
     33 CZ          2.0688   -5.8487   -1.2539 C.ar    4  PHE4       -0.0617
     34 CA         -0.9738    0.5056    5.0762 C.3     2  GLY2        0.0882
     35 C          -0.2477   -0.6192    4.3183 C.2     2  GLY2        0.2306
     36 CD1         2.6382    1.8871   10.7147 C.ar    1  TYR1       -0.0551
     37 CD2         1.9097    3.9285    9.6449 C.ar    1  TYR1       -0.0551
     38 CE1         3.2599    2.6287   11.7204 C.ar    1  TYR1       -0.0199
     39 CE2         2.5344    4.6707   10.6501 C.ar    1  TYR1       -0.0199
     40 CZ          3.2034    4.0166   11.6777 C.ar    1  TYR1        0.1169
     41 HB1         0.9579    3.2564    2.6128 H       5  LEU5        0.0291
     42 HB2         2.6107    3.5930    3.0891 H       5  LEU5        0.0291
     43 HG          2.5489    5.7852    1.9351 H       5  LEU5        0.0296
     44 HA          1.6623    3.1755    0.1958 H       5  LEU5        0.0614
     45 HA          3.8089   -0.9265    0.6506 H       4  PHE4        0.0598
     46 H           3.1394    1.3328    2.0288 H       5  LEU5        0.1496
     47 HD11       -0.3202    5.0113    1.1833 H       5  LEU5        0.0232
     48 HD12        0.2943    6.6729    1.1516 H       5  LEU5        0.0232
     49 HD13        0.9903    5.4634    0.0837 H       5  LEU5        0.0232
     50 HD21        1.8487    5.6086    4.3075 H       5  LEU5        0.0232
     51 HD22        0.9502    6.8834    3.4742 H       5  LEU5        0.0232
     52 HD23        0.1703    5.3283    3.8083 H       5  LEU5        0.0232
     53 HB1         1.0876   -1.2646   -0.6994 H       4  PHE4        0.0336
     54 HB2         2.6403   -1.2241   -1.5268 H       4  PHE4        0.0336
     55 H           1.1807   -0.6356    2.0635 H       4  PHE4        0.1495
     56 HD1         0.4516   -2.9995   -2.0795 H       4  PHE4        0.0620
     57 HD2         3.9249   -3.5436    0.4278 H       4  PHE4        0.0620
     58 HA1         1.1159   -2.8021    3.9711 H       3  GLY3        0.0558
     59 HA2         2.4948   -2.2625    4.9539 H       3  GLY3        0.0558
     60 HA         -0.7701    2.1274    8.8126 H       1  TYR1        0.0557
     61 HB1         1.9898    0.8259    8.3732 H       1  TYR1        0.0333
     62 HB2         1.4405    2.2983    7.6331 H       1  TYR1        0.0333
     63 H           2.8205    4.7777   -0.6770 H       5  LEU5        0.2951
     64 HE1         0.3642   -5.4165   -2.4966 H       4  PHE4        0.0618
     65 HE2         3.8141   -5.9683   -0.0073 H       4  PHE4        0.0618
     66 H           1.3932   -0.3880    5.4936 H       3  GLY3        0.1492
     67 HZ          2.0382   -6.9182   -1.4466 H       4  PHE4        0.0618
     68 HA1        -1.0326    1.3542    4.3866 H       2  GLY2        0.0558
     69 HA2        -1.9903    0.1728    5.3128 H       2  GLY2        0.0558
     70 H          -0.2245    2.0228    6.3181 H       2  GLY2        0.1492
     71 H1         -0.1756    1.0848   10.7980 H       1  TYR1        0.1189
     72 H2         -1.2148    0.0810   10.0181 H       1  TYR1        0.1189
     73 HD1         2.6911    0.7999   10.7452 H       1  TYR1        0.0621
     74 HD2         1.4037    4.4570    8.8411 H       1  TYR1        0.0621
     75 HE1         3.7877    2.1077   12.5124 H       1  TYR1        0.0654
     76 HE2         2.5107    5.7567   10.6272 H       1  TYR1        0.0654
     77 HH          4.2041    4.1888   13.2936 H       1  TYR1        0.2921
@<TRIPOS>BOND
     1     1    19    2
     2     2    21    1
     3     2    63    1
     4     3    21    2
     5     4    23    2
     6     5    32    2
     7     6    35    2
     8     7    40    1
     9     7    77    1
    10    15     8    1
    11     8    19   am
    12     8    46    1
    13    16     9    1
    14     9    23   am
    15     9    55    1
    16    10    26    1
    17    10    35   am
    18    10    66    1
    19    11    32   am
    20    11    34    1
    21    11    70    1
    22    27    12    1
    23    12    71    1
    24    12    72    1
    25    13    14    1
    26    13    15    1
    27    13    41    1
    28    13    42    1
    29    14    17    1
    30    14    18    1
    31    14    43    1
    32    15    21    1
    33    15    44    1
    34    16    19    1
    35    16    20    1
    36    16    45    1
    37    17    47    1
    38    17    48    1
    39    17    49    1
    40    18    50    1
    41    18    51    1
    42    18    52    1
    43    20    22    1
    44    20    53    1
    45    20    54    1
    46    22    24   ar
    47    22    25   ar
    48    23    26    1
    49    24    29   ar
    50    24    56    1
    51    25    30   ar
    52    25    57    1
    53    26    58    1
    54    26    59    1
    55    27    28    1
    56    27    32    1
    57    27    60    1
    58    28    31    1
    59    28    61    1
    60    28    62    1
    61    29    33   ar
    62    29    64    1
    63    30    33   ar
    64    30    65    1
    65    31    36   ar
    66    31    37   ar
    67    33    67    1
    68    34    35    1
    69    34    68    1
    70    34    69    1
    71    36    38   ar
    72    36    73    1
    73    37    39   ar
    74    37    74    1
    75    38    40   ar
    76    38    75    1
    77    39    40   ar
    78    39    76    1
