@<TRIPOS>MOLECULE
met_enkephalin
 75 76 0 0 0
SMALL
GASTEIGER

@<TRIPOS>ATOM
      1 SD         -4.6982    0.8271   -1.4093 S.3     5  MET5       -0.1641
      2 O          -0.4867   -2.2333    1.1262 O.2     4  PHE4       -0.2738
      3 O          -0.5305    2.4090    1.3665 O.3     5  MET5       -0.4793
      4 O           3.5226    0.1457   -0.7826 O.2     3  GLY3       -0.2741
      5 OXT        -2.0726    3.0557   -0.1470 O.2     5  MET5       -0.2489
      6 O           1.5994    1.1482    4.1541 O.2     1  TYR1       -0.2741
      7 O           5.7423    1.7044    3.4343 O.2     2  GLY2       -0.2741
      8 OH          0.4265   -4.8773    4.0202 O.3     1  TYR1       -0.5068
      9 N          -1.1232   -0.1246    1.3703 N.am    5  MET5       -0.3008
     10 N           1.8926   -0.1315    0.7919 N.am    4  PHE4       -0.3024
     11 N           3.7879    0.6654    2.8762 N.am    3  GLY3       -0.3054
     12 N           3.0428    1.2538    5.9305 N.am    2  GLY2       -0.3054
     13 N          -0.6692    1.3254    5.7715 N.3     1  TYR1       -0.3197
     14 CA          0.8318   -0.5766   -0.1326 C.3     4  PHE4        0.1033
     15 CB          1.2019   -1.6369   -1.2063 C.3     4  PHE4       -0.0007
     16 CA         -2.0375    0.7075    0.5444 C.3     5  MET5        0.1210
     17 C          -0.3278   -1.0730    0.7574 C.2     4  PHE4        0.2343
     18 CB         -3.4563    0.5929    1.1331 C.3     5  MET5       -0.0151
     19 CG          1.6566   -3.0271   -0.8032 C.ar    4  PHE4       -0.0451
     20 CG         -4.5893    1.2644    0.3565 C.3     5  MET5       -0.0044
     21 C           3.1583    0.2200    0.3892 C.2     3  GLY3        0.2308
     22 C          -1.5635    2.1705    0.5225 C.2     5  MET5        0.3253
     23 CA          0.6453    1.1050    6.4155 C.3     1  TYR1        0.0863
     24 CD1         1.3833   -4.1023   -1.6672 C.ar    4  PHE4       -0.0585
     25 CD2         2.3483   -3.2967    0.3832 C.ar    4  PHE4       -0.0585
     26 CB          0.6978   -0.2108    7.2216 C.3     1  TYR1       -0.0039
     27 CA          4.0872    0.8177    1.4591 C.3     3  GLY3        0.0882
     28 CG          0.6428   -1.4643    6.3787 C.ar    1  TYR1       -0.0452
     29 C           1.7876    1.1629    5.3689 C.2     1  TYR1        0.2306
     30 CE1         1.7266   -5.4105   -1.3186 C.ar    4  PHE4       -0.0615
     31 CE2         2.6926   -4.6043    0.7328 C.ar    4  PHE4       -0.0615
     32 CA          4.3387    1.0751    5.2792 C.3     2  GLY2        0.0882
     33 CZ          2.3686   -5.6627   -0.1099 C.ar    4  PHE4       -0.0617
     34 C           4.6527    1.2487    3.7816 C.2     2  GLY2        0.2306
     35 CD1         1.8166   -2.0279    5.8513 C.ar    1  TYR1       -0.0551
     36 CD2        -0.5880   -2.0617    6.0820 C.ar    1  TYR1       -0.0551
     37 CE1         1.7605   -3.1587    5.0352 C.ar    1  TYR1       -0.0199
     38 CE2        -0.6424   -3.2050    5.2854 C.ar    1  TYR1       -0.0199
     39 CE         -5.2761   -0.8834   -1.2950 C.3     5  MET5       -0.0181
     40 CZ          0.5292   -3.7458    4.7719 C.ar    1  TYR1        0.1169
     41 HA          0.5015    0.3233   -0.6660 H       4  PHE4        0.0598
     42 HB1         0.2929   -1.7687   -1.8134 H       4  PHE4        0.0336
     43 HB2         1.9495   -1.2335   -1.8989 H       4  PHE4        0.0336
     44 HA         -1.9934    0.3216   -0.4789 H       5  MET5        0.0614
     45 HB1        -3.4529    1.0143    2.1489 H       5  MET5        0.0296
     46 HB2        -3.7061   -0.4692    1.2614 H       5  MET5        0.0296
     47 H          -1.6332   -0.6467    2.0812 H       5  MET5        0.1496
     48 H           1.6074    0.1533    1.7203 H       4  PHE4        0.1495
     49 HG1        -4.4860    2.3518    0.4203 H       5  MET5        0.0377
     50 HG2        -5.5468    1.0256    0.8343 H       5  MET5        0.0377
     51 HA          0.8050    1.9403    7.1108 H       1  TYR1        0.0557
     52 HB1         1.6131   -0.2432    7.8281 H       1  TYR1        0.0333
     53 HB2        -0.1218   -0.2296    7.9530 H       1  TYR1        0.0333
     54 HD1         0.8810   -3.9300   -2.6169 H       4  PHE4        0.0620
     55 HD2         2.6099   -2.5032    1.0726 H       4  PHE4        0.0620
     56 HA1         5.0793    0.3774    1.2981 H       3  GLY3        0.0558
     57 HA2         4.1542    1.8920    1.2543 H       3  GLY3        0.0558
     58 HE1         1.4832   -6.2322   -1.9864 H       4  PHE4        0.0618
     59 HE2         3.2086   -4.7909    1.6690 H       4  PHE4        0.0618
     60 H           2.8204    0.6226    3.1905 H       3  GLY3        0.1492
     61 HA1         4.7044    0.0882    5.5742 H       2  GLY2        0.0558
     62 HA2         4.9764    1.8039    5.7907 H       2  GLY2        0.0558
     63 HZ          2.6184   -6.6812    0.1726 H       4  PHE4        0.0618
     64 H           3.0915    1.2072    6.9398 H       2  GLY2        0.1492
     65 H1         -1.3889    1.3964    6.4912 H       1  TYR1        0.1189
     66 H2         -0.6460    2.2220    5.2865 H       1  TYR1        0.1189
     67 HD1         2.7877   -1.5898    6.0644 H       1  TYR1        0.0621
     68 HD2        -1.5133   -1.6385    6.4645 H       1  TYR1        0.0621
     69 H          -0.3027    1.5905    1.8595 H       5  MET5        0.2951
     70 HE1         2.6782   -3.5668    4.6247 H       1  TYR1        0.0654
     71 HE2        -1.5966   -3.6711    5.0586 H       1  TYR1        0.0654
     72 HE1        -5.6105   -1.2027   -2.2867 H       5  MET5        0.0340
     73 HE2        -4.4634   -1.5418   -0.9793 H       5  MET5        0.0340
     74 HE3        -6.1192   -0.9709   -0.6053 H       5  MET5        0.0340
     75 HH          1.2935   -5.0752    3.6314 H       1  TYR1        0.2921
@<TRIPOS>BOND
     1     1    20    1
     2     1    39    1
     3     2    17    2
     4     3    22    1
     5     3    69    1
     6     4    21    2
     7     5    22    2
     8     6    29    2
     9     7    34    2
    10     8    40    1
    11     8    75    1
    12     9    17   am
    13     9    47    1
    14    14    10    1
    15    10    21   am
    16    10    48    1
    17    11    27    1
    18    11    34   am
    19    11    60    1
    20    12    29   am
    21    12    32    1
    22    12    64    1
    23    23    13    1
    24    13    65    1
    25    13    66    1
    26    14    15    1
    27    14    17    1
    28    14    41    1
    29    15    19    1
    30    15    42    1
    31    15    43    1
    32    16    22    1
    33    16    44    1
    34    18    20    1
    35    18    45    1
    36    18    46    1
    37    19    24   ar
    38    19    25   ar
    39    20    49    1
    40    20    50    1
    41    21    27    1
    42    23    26    1
    43    23    29    1
    44    23    51    1
    45    24    30   ar
    46    24    54    1
    47    25    31   ar
    48    25    55    1
    49    26    28    1
    50    26    52    1
    51    26    53    1
    52    27    56    1
    53    27    57    1
    54    28    35   ar
    55    28    36   ar
    56    30    33   ar
    57    30    58    1
    58    31    33   ar
    59    31    59    1
    60    32    34    1
    61    32    61    1
    62    32    62    1
    63    33    63    1
    64    35    37   ar
    65    35    67    1
    66    36    38   ar
    67    36    68    1
    68    37    40   ar
    69    37    70    1
    70    38    40   ar
    71    38    71    1
    72    39    72    1
    73    39    73    1
    74    39    74    1
    75    16    18    1
    76    16     9    1
