@<TRIPOS>MOLECULE
ophthalmic_acid
 39 38 0 0 0
SMALL
GASTEIGER

@<TRIPOS>ATOM
      1 O           0.1718    0.5048   -1.2965 O.2     1  UNL1       -0.2758
      2 O          -2.3062   -0.4271    1.6674 O.2     1  UNL1       -0.2738
      3 O           4.8336   -0.7560    1.2962 O.3     1  UNL1       -0.4795
      4 OXT         5.7227   -0.1242   -0.6917 O.2     1  UNL1       -0.2493
      5 O          -3.1781    2.1510   -0.6733 O.3     1  UNL1       -0.4795
      6 OXT        -5.1231    2.8004    0.2977 O.2     1  UNL1       -0.2492
      7 N          -0.1528   -1.2573    0.1817 N.am    1  UNL1       -0.3040
      8 N          -3.5587   -0.4042   -0.2862 N.am    1  UNL1       -0.3033
      9 N           4.7869    2.4311   -0.2530 N.3     1  UNL1       -0.3184
     10 CA         -1.4747   -1.6293   -0.2667 C.3     1  UNL1        0.0991
     11 C           2.7326    1.1006   -0.3240 C.3     1  UNL1       -0.0191
     12 C           1.9243   -0.0499    0.2796 C.3     1  UNL1        0.0259
     13 C          -1.7582   -3.1167   -0.0445 C.3     1  UNL1       -0.0288
     14 CA          4.0762    1.3179    0.3808 C.3     1  UNL1        0.1037
     15 C           0.5643   -0.2102   -0.3785 C.2     1  UNL1        0.2137
     16 C          -2.4773   -0.7747    0.5006 C.2     1  ACE1        0.2338
     17 C          -0.7823   -4.0157   -0.7913 C.3     1  UNL1       -0.0631
     18 C           4.9715    0.0991    0.2495 C.2     1  UNL1        0.3217
     19 CA         -4.6202    0.4486    0.1959 C.3     1  UNL1        0.1089
     20 C          -4.3519    1.9120   -0.0436 C.2     1  UNL1        0.3221
     21 HA         -1.5449   -1.3984   -1.3369 H       1  UNL1        0.0594
     22 H           2.1397    2.0235   -0.2715 H       1  UNL1        0.0290
     23 H           2.8949    0.8955   -1.3911 H       1  UNL1        0.0290
     24 H           2.4573   -0.9997    0.1598 H       1  UNL1        0.0359
     25 H           1.7688    0.1235    1.3509 H       1  UNL1        0.0359
     26 H          -2.7796   -3.3483   -0.3709 H       1  UNL1        0.0285
     27 H          -1.7124   -3.3551    1.0257 H       1  UNL1        0.0285
     28 H           0.2348   -1.7446    0.9849 H       1  UNL1        0.1494
     29 HA          3.9319    1.5520    1.4414 H       1  UNL1        0.0574
     30 H          -0.7985   -3.8042   -1.8652 H       1  UNL1        0.0230
     31 H           0.2421   -3.8862   -0.4289 H       1  UNL1        0.0230
     32 H          -1.0557   -5.0662   -0.6492 H       1  UNL1        0.0230
     33 H          -3.6123   -0.7256   -1.2482 H       1  UNL1        0.1493
     34 H1          4.2188    3.2756   -0.1954 H       1  UNL1        0.1190
     35 H2          5.6419    2.6297    0.2657 H       1  UNL1        0.1190
     36 HA1        -4.7516    0.2895    1.2703 H       1  UNL1        0.0577
     37 HA2        -5.5302    0.1679   -0.3415 H       1  UNL1        0.0577
     38 H           5.4044   -1.5478    1.1989 H       1  UNL1        0.2951
     39 H          -3.0271    3.1094   -0.8176 H       1  UNL1        0.2951
@<TRIPOS>BOND
     1     1    15    2
     2     2    16    2
     3     3    18    1
     4     3    38    1
     5     4    18    2
     6     5    20    1
     7     5    39    1
     8     6    20    2
     9     7    10    1
    10     7    15   am
    11     7    28    1
    12     8    16   am
    13     8    19    1
    14     8    33    1
    15     9    14    1
    16     9    34    1
    17     9    35    1
    18    10    13    1
    19    10    16    1
    20    10    21    1
    21    11    12    1
    22    11    14    1
    23    11    22    1
    24    11    23    1
    25    12    15    1
    26    12    24    1
    27    12    25    1
    28    13    17    1
    29    13    26    1
    30    13    27    1
    31    14    18    1
    32    14    29    1
    33    17    30    1
    34    17    31    1
    35    17    32    1
    36    19    20    1
    37    19    36    1
    38    19    37    1
