@<TRIPOS>MOLECULE
oxytocin
 135 137 0 0 0
SMALL
GASTEIGER

@<TRIPOS>ATOM
      1 S           9.5280    0.2017   -2.8632 S.3     1  UNL1       -0.0907
      2 S           8.6796   -0.0980   -0.8826 S.3     1  UNL1       -0.0910
      3 O          11.2691    3.8649   -6.4263 O.2     1  UNL1       -0.2738
      4 O          10.4618    0.3914   -6.3852 O.2     1  UNL1       -0.2735
      5 O          13.8839    5.2897  -10.3818 O.2     1  UNL1       -0.2738
      6 O           5.2534    0.4607   -8.1824 O.2     1  UNL1       -0.2737
      7 O           8.7447    2.9432   -4.2660 O.2     1  UNL1       -0.2738
      8 O           5.0297   -1.1537   -3.8603 O.2     1  UNL1       -0.2738
      9 O           3.7803    4.5151   -2.3610 O.2     1  UNL1       -0.2738
     10 O           4.8261    4.8624   -6.5990 O.2     1  UNL1       -0.2760
     11 O           7.2105    2.4651   -1.3320 O.2     1  UNL1       -0.2741
     12 O          17.4516    8.0155   -8.2556 O.2     1  UNL1       -0.2743
     13 O           4.7123    0.0177    0.3206 O.2     1  UNL1       -0.2760
     14 O           4.4888    7.6534    5.2616 O.3     1  UNL1       -0.5068
     15 N           9.1804    1.8403   -7.6105 N.am    1  UNL1       -0.2884
     16 N          12.4277    3.8831   -8.4151 N.am    1  UNL1       -0.3025
     17 N           6.8243   -0.0785   -6.6541 N.am    1  UNL1       -0.3017
     18 N          15.2851    6.3674   -8.9314 N.am    1  UNL1       -0.3052
     19 N           4.4179    0.6029   -5.0624 N.am    1  UNL1       -0.3020
     20 N           5.8308    4.6575   -2.9664 N.am    1  UNL1       -0.3022
     21 N           7.0446    1.8350   -3.4929 N.am    1  UNL1       -0.3025
     22 N           6.4199    3.7243    0.2927 N.am    1  UNL1       -0.3024
     23 N           9.0476    3.9622    1.2626 N.3     1  UNL1       -0.3193
     24 N           7.0413    4.3686   -6.7087 N.am    1  UNL1       -0.3293
     25 N          18.2725    8.1185  -10.3518 N.am    1  UNL1       -0.3280
     26 N           3.9383   -1.5954   -1.0754 N.am    1  UNL1       -0.3293
     27 C          10.3253    2.5221   -8.2763 C.3     1  UNL1        0.1023
     28 C           9.5790    3.4956   -9.2127 C.3     1  UNL1       -0.0243
     29 C           8.3568    2.7438   -9.6763 C.3     1  UNL1       -0.0350
     30 C           8.0571    1.7940   -8.5306 C.3     1  UNL1        0.0156
     31 C          11.3887    3.4479   -7.5747 C.2     1  UNL1        0.2342
     32 C           9.3642    0.8088   -6.6614 C.2     1  UNL1        0.2373
     33 C           8.0701    0.3095   -5.8129 C.3     1  UNL1        0.1094
     34 C          13.4877    4.8437   -8.0028 C.3     1  UNL1        0.0996
     35 C          14.4826    4.1863   -7.0280 C.3     1  UNL1       -0.0236
     36 C           8.4380   -0.6291   -4.4989 C.3     1  UNL1        0.0309
     37 C          15.1188    2.8595   -7.5005 C.3     1  UNL1       -0.0446
     38 C          14.2260    5.5166   -9.2189 C.2     1  UNL1        0.2338
     39 C           5.6762    0.6275   -7.0292 C.2     1  UNL1        0.2344
     40 C           4.8514    1.5499   -6.1008 C.3     1  UNL1        0.1076
     41 C           8.2645    5.1915   -2.3123 C.3     1  UNL1       -0.0171
     42 C           7.2465    4.4829   -3.2511 C.3     1  UNL1        0.1020
     43 C          15.9704    2.9806   -8.7650 C.3     1  UNL1       -0.0626
     44 C          15.9902    2.2861   -6.3799 C.3     1  UNL1       -0.0626
     45 C           5.8779    0.9603   -3.0432 C.3     1  UNL1        0.0999
     46 C           7.7028    6.4445   -1.6436 C.3     1  UNL1       -0.0512
     47 C           5.5710    2.7760   -5.6561 C.3     1  UNL1        0.0506
     48 C           7.6598    3.0436   -3.6602 C.2     1  UNL1        0.2342
     49 C           5.1786    0.0559   -4.0731 C.2     1  UNL1        0.2340
     50 C           9.7130    5.3371   -2.7965 C.3     1  UNL1       -0.0603
     51 C           4.7483    1.5827   -2.2632 C.3     1  UNL1       -0.0177
     52 C           5.1976    4.1655   -0.4398 C.3     1  UNL1        0.1033
     53 C           4.9630    4.4057   -1.9771 C.2     1  UNL1        0.2343
     54 C          16.1396    6.9214   -9.9869 C.3     1  UNL1        0.0879
     55 C           7.8806    7.7691   -2.3374 C.3     1  UNL1       -0.0650
     56 C           3.6343    0.7030   -1.7236 C.3     1  UNL1        0.0259
     57 C           4.6319    5.4983    0.0786 C.3     1  UNL1       -0.0007
     58 C           8.9287    1.3829    0.5858 C.3     1  UNL1        0.0276
     59 C           8.8278    2.8900    0.2575 C.3     1  UNL1        0.0921
     60 C           5.7296    4.0601   -6.4212 C.2     1  UNL1        0.2127
     61 C           7.4246    3.0383   -0.2914 C.2     1  UNL1        0.2313
     62 C           4.6859    5.9647    1.4934 C.ar    1  UNL1       -0.0449
     63 C          17.3343    7.7115   -9.4363 C.2     1  UNL1        0.2277
     64 C           4.1516   -0.2975   -0.7228 C.2     1  UNL1        0.2106
     65 C           4.8802    5.1485    2.6066 C.ar    1  UNL1       -0.0551
     66 C           4.4091    7.3284    1.6652 C.ar    1  UNL1       -0.0551
     67 C           4.8298    5.7085    3.8810 C.ar    1  UNL1       -0.0199
     68 C           4.3437    7.8776    2.9288 C.ar    1  UNL1       -0.0199
     69 C           4.5644    7.0700    4.0315 C.ar    1  UNL1        0.1169
     70 H          10.8574    1.7509   -8.8471 H       1  UNL1        0.0597
     71 H           9.2560    4.3836   -8.6495 H       1  UNL1        0.0288
     72 H          10.1870    3.8469  -10.0501 H       1  UNL1        0.0288
     73 H           7.5110    3.4133   -9.8739 H       1  UNL1        0.0281
     74 H           8.5604    2.1919  -10.5990 H       1  UNL1        0.0281
     75 H           7.1624    2.1321   -8.0299 H       1  UNL1        0.0465
     76 H           7.9310    0.7780   -8.9204 H       1  UNL1        0.0465
     77 H           7.7625    1.2272   -5.4044 H       1  UNL1        0.0603
     78 H          12.4930    3.5423   -9.3693 H       1  UNL1        0.1495
     79 H          12.9740    5.6628   -7.4825 H       1  UNL1        0.0594
     80 H          15.2767    4.8921   -6.7560 H       1  UNL1        0.0290
     81 H          13.9422    3.9854   -6.0935 H       1  UNL1        0.0290
     82 H           7.5506   -1.0887   -4.0541 H       1  UNL1        0.0407
     83 H           9.0837   -1.4484   -4.8317 H       1  UNL1        0.0407
     84 H          14.3165    2.1386   -7.6972 H       1  UNL1        0.0296
     85 H           7.0611   -0.6701   -7.4441 H       1  UNL1        0.1495
     86 H           3.9109    1.8508   -6.5814 H       1  UNL1        0.0599
     87 H           8.4116    4.5194   -1.4989 H       1  UNL1        0.0321
     88 H           7.3464    5.0422   -4.1909 H       1  UNL1        0.0597
     89 H          16.7874    3.6977   -8.6292 H       1  UNL1        0.0232
     90 H          16.4141    2.0127   -9.0221 H       1  UNL1        0.0232
     91 H          15.3797    3.2843   -9.6309 H       1  UNL1        0.0232
     92 H          15.4460    2.2530   -5.4310 H       1  UNL1        0.0232
     93 H          16.3009    1.2651   -6.6244 H       1  UNL1        0.0232
     94 H          16.8936    2.8890   -6.2343 H       1  UNL1        0.0232
     95 H           6.3664    0.2414   -2.3733 H       1  UNL1        0.0595
     96 H           6.6371    6.3255   -1.5376 H       1  UNL1        0.0266
     97 H           8.0844    6.5079   -0.6196 H       1  UNL1        0.0266
     98 H          15.5114    6.6241   -7.9737 H       1  UNL1        0.1492
     99 H           3.8457   -0.1357   -5.4572 H       1  UNL1        0.1495
    100 H           5.1719    3.0713   -4.6920 H       1  UNL1        0.0381
    101 H           6.5830    2.4729   -5.5735 H       1  UNL1        0.0381
    102 H           5.2924    4.9138   -3.7881 H       1  UNL1        0.1495
    103 H           7.8748    1.2825   -3.3051 H       1  UNL1        0.1495
    104 H          10.3433    5.6422   -1.9497 H       1  UNL1        0.0233
    105 H          10.1352    4.3833   -3.1276 H       1  UNL1        0.0233
    106 H           9.8335    6.0650   -3.6002 H       1  UNL1        0.0233
    107 H           5.1784    2.0128   -1.3821 H       1  UNL1        0.0292
    108 H           4.2782    2.3219   -2.8987 H       1  UNL1        0.0292
    109 H           4.4443    3.4148   -0.1571 H       1  UNL1        0.0598
    110 H          16.5332    6.0911  -10.5768 H       1  UNL1        0.0558
    111 H          15.5133    7.5571  -10.6087 H       1  UNL1        0.0558
    112 H           7.5587    7.7215   -3.3802 H       1  UNL1        0.0230
    113 H           7.2526    8.5069   -1.8237 H       1  UNL1        0.0230
    114 H           8.9160    8.1054   -2.2775 H       1  UNL1        0.0230
    115 H           2.9237    1.3467   -1.1919 H       1  UNL1        0.0359
    116 H           3.0738    0.2217   -2.5280 H       1  UNL1        0.0359
    117 H           5.0714    6.3131   -0.5115 H       1  UNL1        0.0336
    118 H           3.5653    5.5297   -0.1857 H       1  UNL1        0.0336
    119 H           9.8542    1.1583    1.1261 H       1  UNL1        0.0405
    120 H           8.1087    1.1612    1.2907 H       1  UNL1        0.0405
    121 H           9.5629    3.0822   -0.5331 H       1  UNL1        0.0563
    122 H           6.1146    3.0806    1.0209 H       1  UNL1        0.1495
    123 H          10.0244    4.0167    1.5471 H       1  UNL1        0.1189
    124 H           8.8926    4.8621    0.7808 H       1  UNL1        0.1189
    125 H           7.8363    3.8119   -6.3843 H       1  UNL1        0.1449
    126 H           7.2663    5.3234   -6.9562 H       1  UNL1        0.1449
    127 H           5.0658    4.0814    2.5112 H       1  UNL1        0.0621
    128 H           4.2316    7.9762    0.8088 H       1  UNL1        0.0621
    129 H          18.2040    7.9154  -11.3448 H       1  UNL1        0.1450
    130 H          19.0531    8.6832  -10.0356 H       1  UNL1        0.1450
    131 H           3.9089   -1.8355   -2.0634 H       1  UNL1        0.1449
    132 H           4.3559   -2.2907   -0.4717 H       1  UNL1        0.1449
    133 H           4.9849    5.0635    4.7387 H       1  UNL1        0.0654
    134 H           4.1134    8.9325    3.0592 H       1  UNL1        0.0654
    135 H           4.7563    6.9914    5.9178 H       1  UNL1        0.2921
@<TRIPOS>BOND
     1     1     2    1
     2     1    36    1
     3     2    58    1
     4     3    31    2
     5     4    32    2
     6     5    38    2
     7     6    39    2
     8     7    48    2
     9     8    49    2
    10     9    53    2
    11    10    60    2
    12    11    61    2
    13    12    63    2
    14    13    64    2
    15    14    69    1
    16    14   135    1
    17    15    27    1
    18    15    30    1
    19    15    32   am
    20    16    31   am
    21    34    16    1
    22    16    78    1
    23    17    33    1
    24    17    39   am
    25    17    85    1
    26    18    38   am
    27    18    54    1
    28    18    98    1
    29    19    40    1
    30    19    49   am
    31    19    99    1
    32    20    42    1
    33    20    53   am
    34    20   102    1
    35    21    45    1
    36    21    48   am
    37    21   103    1
    38    22    52    1
    39    22    61   am
    40    22   122    1
    41    59    23    1
    42    23   123    1
    43    23   124    1
    44    24    60   am
    45    24   125    1
    46    24   126    1
    47    25    63   am
    48    25   129    1
    49    25   130    1
    50    26    64   am
    51    26   131    1
    52    26   132    1
    53    27    28    1
    54    28    29    1
    55    28    71    1
    56    28    72    1
    57    29    30    1
    58    29    73    1
    59    29    74    1
    60    30    75    1
    61    30    76    1
    62    33    36    1
    63    34    35    1
    64    34    38    1
    65    34    79    1
    66    35    37    1
    67    35    80    1
    68    35    81    1
    69    36    82    1
    70    36    83    1
    71    37    43    1
    72    37    44    1
    73    37    84    1
    74    39    40    1
    75    40    47    1
    76    40    86    1
    77    41    50    1
    78    41    87    1
    79    42    48    1
    80    42    88    1
    81    43    89    1
    82    43    90    1
    83    43    91    1
    84    44    92    1
    85    44    93    1
    86    44    94    1
    87    45    49    1
    88    45    51    1
    89    45    95    1
    90    46    55    1
    91    46    96    1
    92    46    97    1
    93    47    60    1
    94    47   100    1
    95    47   101    1
    96    50   104    1
    97    50   105    1
    98    50   106    1
    99    51    56    1
   100    51   107    1
   101    51   108    1
   102    52    53    1
   103    52    57    1
   104    52   109    1
   105    54    63    1
   106    54   110    1
   107    54   111    1
   108    55   112    1
   109    55   113    1
   110    55   114    1
   111    56    64    1
   112    56   115    1
   113    56   116    1
   114    57    62    1
   115    57   117    1
   116    57   118    1
   117    58    59    1
   118    58   119    1
   119    58   120    1
   120    59    61    1
   121    59   121    1
   122    62    65   ar
   123    62    66   ar
   124    65    67   ar
   125    65   127    1
   126    66    68   ar
   127    66   128    1
   128    67    69   ar
   129    67   133    1
   130    68    69   ar
   131    68   134    1
   132    27    70    1
   133    27    31    1
   134    33    77    1
   135    33    32    1
   136    41    46    1
   137    41    42    1
