@<TRIPOS>MOLECULE
substance_p
 193 196 0 0 0
SMALL
GASTEIGER

@<TRIPOS>ATOM
      1 S          19.7133  -12.2924  -10.1640 S.3     1  UNL1       -0.1641
      2 O           1.5531   -8.9022   -1.2601 O.2     1  UNL1       -0.2735
      3 O          -1.5723  -12.3772   -3.2600 O.2     1  UNL1       -0.2738
      4 O           0.4724   -6.1812    1.6736 O.2     1  UNL1       -0.2738
      5 O           2.2927  -11.2823   -5.7099 O.2     1  UNL1       -0.2739
      6 O           3.5494   -6.1673   -2.5250 O.2     1  UNL1       -0.2738
      7 O           5.0150   -3.8767    1.0506 O.2     1  UNL1       -0.2760
      8 O           4.7721   -2.3758   -3.0195 O.2     1  UNL1       -0.2738
      9 O           7.5843   -5.8966   -5.6520 O.2     1  UNL1       -0.2760
     10 O           8.1366   -0.9000   -6.5545 O.2     1  UNL1       -0.2738
     11 O          11.8219   -3.6219   -4.6200 O.2     1  UNL1       -0.2738
     12 O          16.9928   -9.8897   -5.7523 O.2     1  UNL1       -0.2738
     13 O          14.0080   -6.1041   -8.4026 O.2     1  UNL1       -0.2741
     14 O          20.3402   -7.9498   -7.4522 O.2     1  UNL1       -0.2740
     15 N          -0.5578   -9.0383   -0.4081 N.am    1  UNL1       -0.2884
     16 N           0.4690  -12.1930   -6.6866 N.am    1  UNL1       -0.2886
     17 N           0.3318  -11.1639   -3.1936 N.am    1  UNL1       -0.3025
     18 N           1.5308   -6.4630   -0.3942 N.am    1  UNL1       -0.3025
     19 N           2.2212  -11.7553   -9.4355 N.3     1  UNL1       -0.3199
     20 N           4.6601   -4.5735   -1.3703 N.am    1  UNL1       -0.3025
     21 N           2.6956  -11.4988    3.0949 N.3     1  UNL1       -0.3300
     22 N           4.6227   -8.1053   -6.8676 N.pl3   1  UNL1       -0.1138
     23 N           7.1084   -2.5274   -3.3860 N.am    1  UNL1       -0.3022
     24 N           4.2371   -4.5750    3.0339 N.am    1  UNL1       -0.3293
     25 N           3.0245   -6.5819   -5.9079 N.pl3   1  UNL1       -0.2893
     26 N           4.2908   -7.9835   -4.7025 N.pl3   1  UNL1       -0.2893
     27 N           9.5961   -2.1772   -5.3421 N.am    1  UNL1       -0.3022
     28 N           5.8578   -5.5473   -7.0149 N.am    1  UNL1       -0.3293
     29 N          15.2197   -7.1578   -6.8824 N.am    1  UNL1       -0.3027
     30 N          12.4939   -4.2983   -6.6981 N.am    1  UNL1       -0.3052
     31 N          17.6852   -8.6050   -7.4846 N.am    1  UNL1       -0.3025
     32 N          20.9559  -10.1048   -7.2174 N.am    1  UNL1       -0.3278
     33 C          -0.6763   -7.6155    0.0170 C.3     1  UNL1        0.1023
     34 C          -0.5543  -12.0015   -5.5396 C.3     1  UNL1        0.1023
     35 C          -1.8137   -7.6974    1.0718 C.3     1  UNL1       -0.0243
     36 C          -1.8437   -9.7269   -0.2159 C.3     1  UNL1        0.0156
     37 C          -2.7673   -8.7362    0.4995 C.3     1  UNL1       -0.0350
     38 C          -1.5724  -13.1481   -5.8796 C.3     1  UNL1       -0.0243
     39 C          -1.2602  -13.6711   -7.2706 C.3     1  UNL1       -0.0350
     40 C           0.4618  -11.0837   -1.6553 C.3     1  UNL1        0.0996
     41 C          -0.2797  -12.6783   -7.8410 C.3     1  UNL1        0.0156
     42 C           0.5267   -9.5855   -1.0901 C.2     1  UNL1        0.2365
     43 C          -0.5961  -11.9412   -3.8835 C.2     1  UNL1        0.2342
     44 C           1.8062  -11.8139   -1.3303 C.3     1  UNL1       -0.0259
     45 C           0.5103   -6.7073    0.5528 C.2     1  UNL1        0.2342
     46 C           1.7636  -11.6681   -6.7657 C.2     1  UNL1        0.2330
     47 C           2.3688  -11.9498    0.1011 C.3     1  UNL1       -0.0498
     48 C           2.7445  -11.7364   -8.0654 C.3     1  UNL1        0.0826
     49 C           2.8101   -5.7943   -0.0970 C.3     1  UNL1        0.0999
     50 C           3.8157  -10.5918   -8.0456 C.3     1  UNL1       -0.0263
     51 C           1.4604  -12.5418    1.1808 C.3     1  UNL1       -0.0406
     52 C           3.5439   -6.7139    0.9141 C.3     1  UNL1       -0.0177
     53 C           3.2830   -9.1986   -8.4890 C.3     1  UNL1       -0.0168
     54 C           2.1782  -12.7488    2.5310 C.3     1  UNL1       -0.0069
     55 C           3.6721   -5.5259   -1.4719 C.2     1  UNL1        0.2340
     56 C           4.8954   -6.2271    1.3880 C.3     1  UNL1        0.0259
     57 C           4.2767   -8.0601   -8.2619 C.3     1  UNL1        0.1047
     58 C           5.8707   -4.2969   -2.1810 C.3     1  UNL1        0.0999
     59 C           6.2779   -5.2634   -3.2982 C.3     1  UNL1       -0.0177
     60 C           4.7617   -4.8006    1.8135 C.2     1  UNL1        0.2106
     61 C           5.8569   -2.9159   -2.8413 C.2     1  UNL1        0.2340
     62 C           5.5711   -5.0300   -4.6467 C.3     1  UNL1        0.0259
     63 C           7.4023   -1.3139   -4.2082 C.3     1  UNL1        0.1034
     64 C           3.9564   -7.5659   -5.9259 C.cat   1  UNL1        0.3765
     65 C           8.0351   -0.2042   -3.3170 C.3     1  UNL1       -0.0007
     66 C           6.4087   -5.5645   -5.7786 C.2     1  UNL1        0.2106
     67 C           8.3842   -1.5019   -5.5009 C.2     1  UNL1        0.2343
     68 C           7.2966    0.2696   -2.0799 C.ar    1  UNL1       -0.0451
     69 C          10.5374   -2.6114   -6.4469 C.3     1  UNL1        0.1034
     70 C          11.1404   -1.4656   -7.2857 C.3     1  UNL1       -0.0007
     71 C          15.4990   -7.9390   -4.4275 C.3     1  UNL1       -0.0236
     72 C          16.1715   -7.5448   -5.7636 C.3     1  UNL1        0.0996
     73 C          16.3788   -8.1358   -3.1345 C.3     1  UNL1       -0.0446
     74 C           8.0381    0.7468   -0.9846 C.ar    1  UNL1       -0.0585
     75 C           5.9012    0.2915   -1.9836 C.ar    1  UNL1       -0.0585
     76 C          11.6809   -3.5501   -5.8450 C.2     1  UNL1        0.2341
     77 C          12.0956   -0.5314   -6.5768 C.ar    1  UNL1       -0.0451
     78 C          16.9836   -8.7941   -6.3095 C.2     1  UNL1        0.2340
     79 C          15.4960   -8.7526   -2.0325 C.3     1  UNL1       -0.0626
     80 C          17.6639   -8.9790   -3.1757 C.3     1  UNL1       -0.0626
     81 C           7.4060    1.1169    0.2063 C.ar    1  UNL1       -0.0615
     82 C           5.2679    0.6472   -0.7887 C.ar    1  UNL1       -0.0615
     83 C          13.5361   -5.2698   -6.1728 C.3     1  UNL1        0.0882
     84 C          14.2915   -6.1921   -7.1975 C.2     1  UNL1        0.2308
     85 C          18.6588   -9.6275   -7.9895 C.3     1  UNL1        0.0999
     86 C           6.0210    1.0386    0.3148 C.ar    1  UNL1       -0.0617
     87 C          18.5098   -9.7284   -9.5149 C.3     1  UNL1       -0.0170
     88 C          13.3331   -0.2416   -7.1713 C.ar    1  UNL1       -0.0585
     89 C          11.7781    0.0881   -5.3634 C.ar    1  UNL1       -0.0585
     90 C          20.0457   -9.1417   -7.5309 C.2     1  UNL1        0.2308
     91 C          19.5361  -10.4819  -10.3743 C.3     1  UNL1       -0.0044
     92 C          14.2585    0.5824   -6.5317 C.ar    1  UNL1       -0.0615
     93 C          12.6946    0.9282   -4.7333 C.ar    1  UNL1       -0.0615
     94 C          13.9394    1.1619   -5.3078 C.ar    1  UNL1       -0.0617
     95 C          18.0657  -12.8324  -10.7067 C.3     1  UNL1       -0.0181
     96 H          -1.0780   -7.0685   -0.8497 H       1  UNL1        0.0597
     97 H          -1.0379  -11.0518   -5.8189 H       1  UNL1        0.0597
     98 H          -1.4333   -8.0545    2.0382 H       1  UNL1        0.0288
     99 H          -2.3156   -6.7388    1.2537 H       1  UNL1        0.0288
    100 H          -1.6895  -10.6233    0.3909 H       1  UNL1        0.0465
    101 H          -2.2697  -10.0162   -1.1824 H       1  UNL1        0.0465
    102 H          -3.3816   -9.2160    1.2722 H       1  UNL1        0.0281
    103 H          -3.4608   -8.2628   -0.2075 H       1  UNL1        0.0281
    104 H          -1.4768  -13.9873   -5.1784 H       1  UNL1        0.0288
    105 H          -2.6062  -12.7920   -5.8158 H       1  UNL1        0.0288
    106 H          -0.7735  -14.6527   -7.1964 H       1  UNL1        0.0281
    107 H          -2.1525  -13.8044   -7.8914 H       1  UNL1        0.0281
    108 H          -0.3624  -11.6377   -1.1961 H       1  UNL1        0.0594
    109 H           0.3180  -13.1846   -8.5886 H       1  UNL1        0.0465
    110 H          -0.8120  -11.8310   -8.2964 H       1  UNL1        0.0465
    111 H           1.7576  -12.8211   -1.7627 H       1  UNL1        0.0288
    112 H           2.5947  -11.2950   -1.8952 H       1  UNL1        0.0288
    113 H           1.1365  -10.8400   -3.7290 H       1  UNL1        0.1495
    114 H           3.2513  -12.6049    0.0259 H       1  UNL1        0.0266
    115 H           2.7552  -10.9786    0.4275 H       1  UNL1        0.0266
    116 H           3.3014  -12.6750   -7.9327 H       1  UNL1        0.0554
    117 H           1.6054   -7.1341   -1.1357 H       1  UNL1        0.1495
    118 H           2.5617   -4.8254    0.3522 H       1  UNL1        0.0595
    119 H           4.2530  -10.5347   -7.0421 H       1  UNL1        0.0286
    120 H           4.6540  -10.8531   -8.7099 H       1  UNL1        0.0286
    121 H           0.5933  -11.8928    1.3358 H       1  UNL1        0.0277
    122 H           1.0857  -13.5173    0.8479 H       1  UNL1        0.0277
    123 H           2.9146   -6.8458    1.8068 H       1  UNL1        0.0292
    124 H           3.6557   -7.7190    0.4900 H       1  UNL1        0.0292
    125 H           3.0428   -9.1894   -9.5563 H       1  UNL1        0.0297
    126 H           2.3636   -8.9807   -7.9351 H       1  UNL1        0.0297
    127 H           2.0701  -10.8350   -9.8270 H       1  UNL1        0.1189
    128 H           1.4402  -12.3508   -9.6266 H       1  UNL1        0.1189
    129 H           1.4728  -13.1895    3.2472 H       1  UNL1        0.0422
    130 H           2.9991  -13.4708    2.4251 H       1  UNL1        0.0422
    131 H           5.2602   -6.8329    2.2250 H       1  UNL1        0.0359
    132 H           5.6414   -6.3001    0.5917 H       1  UNL1        0.0359
    133 H           5.1849   -8.2319   -8.8555 H       1  UNL1        0.0693
    134 H           3.8623   -7.1004   -8.5890 H       1  UNL1        0.0693
    135 H           4.6131   -3.9975   -0.5295 H       1  UNL1        0.1495
    136 H           6.6727   -4.2789   -1.4334 H       1  UNL1        0.0595
    137 H           3.1538  -11.7215    3.9820 H       1  UNL1        0.1182
    138 H           3.4305  -11.1223    2.4973 H       1  UNL1        0.1182
    139 H           7.3506   -5.1035   -3.4639 H       1  UNL1        0.0292
    140 H           6.1921   -6.3090   -2.9882 H       1  UNL1        0.0292
    141 H           4.6074   -5.4898   -4.5801 H       1  UNL1        0.0359
    142 H           5.3494   -3.9898   -4.8961 H       1  UNL1        0.0359
    143 H           7.9154   -3.0665   -3.1052 H       1  UNL1        0.1495
    144 H           6.4410   -0.9652   -4.6081 H       1  UNL1        0.0598
    145 H           3.8940   -5.3121    3.6351 H       1  UNL1        0.1449
    146 H           4.0612   -3.6170    3.3042 H       1  UNL1        0.1449
    147 H           9.0046   -0.5966   -2.9776 H       1  UNL1        0.0336
    148 H           8.2580    0.6769   -3.9318 H       1  UNL1        0.0336
    149 H           2.8774   -6.1378   -5.0082 H       1  UNL1        0.2546
    150 H           3.0557   -5.8854   -6.6423 H       1  UNL1        0.2546
    151 H           5.2222   -8.3786   -4.6793 H       1  UNL1        0.2546
    152 H           4.0399   -7.4384   -3.8756 H       1  UNL1        0.2546
    153 H           9.5829   -2.8585   -4.5931 H       1  UNL1        0.1495
    154 H           9.9299   -3.2349   -7.1170 H       1  UNL1        0.0598
    155 H           4.8853   -5.8422   -7.0445 H       1  UNL1        0.1449
    156 H           6.4143   -6.1118   -7.6510 H       1  UNL1        0.1449
    157 H          11.6917   -1.9363   -8.1117 H       1  UNL1        0.0336
    158 H          10.3604   -0.8623   -7.7654 H       1  UNL1        0.0336
    159 H          14.7734   -7.1546   -4.1792 H       1  UNL1        0.0290
    160 H          14.9058   -8.8476   -4.5917 H       1  UNL1        0.0290
    161 H          16.8518   -6.6984   -5.6219 H       1  UNL1        0.0594
    162 H          16.6869   -7.1370   -2.8008 H       1  UNL1        0.0296
    163 H           9.1216    0.8288   -1.0461 H       1  UNL1        0.0620
    164 H           5.2745    0.0076   -2.8256 H       1  UNL1        0.0620
    165 H          15.4677   -7.6300   -7.7470 H       1  UNL1        0.1495
    166 H          15.0934   -9.7220   -2.3522 H       1  UNL1        0.0232
    167 H          16.0666   -8.9274   -1.1123 H       1  UNL1        0.0232
    168 H          14.6568   -8.0969   -1.7876 H       1  UNL1        0.0232
    169 H          18.3591   -8.6709   -3.9590 H       1  UNL1        0.0232
    170 H          18.2082   -8.8644   -2.2262 H       1  UNL1        0.0232
    171 H          17.4553  -10.0518   -3.2688 H       1  UNL1        0.0232
    172 H          12.2220   -4.4133   -7.6716 H       1  UNL1        0.1492
    173 H           7.9952    1.4625    1.0519 H       1  UNL1        0.0618
    174 H           4.1832    0.6116   -0.7216 H       1  UNL1        0.0618
    175 H          13.0116   -5.9238   -5.4702 H       1  UNL1        0.0558
    176 H          14.2742   -4.6669   -5.6417 H       1  UNL1        0.0558
    177 H          18.4555  -10.5968   -7.5184 H       1  UNL1        0.0595
    178 H          17.8882   -7.6425   -7.7417 H       1  UNL1        0.1495
    179 H           5.5286    1.2948    1.2489 H       1  UNL1        0.0618
    180 H          18.4990   -8.7018   -9.9044 H       1  UNL1        0.0296
    181 H          17.5095  -10.1264   -9.7257 H       1  UNL1        0.0296
    182 H          13.5876   -0.6653   -8.1397 H       1  UNL1        0.0620
    183 H          10.8154   -0.0633   -4.8870 H       1  UNL1        0.0620
    184 H          20.5287  -10.0336  -10.2631 H       1  UNL1        0.0377
    185 H          19.2561  -10.3238  -11.4240 H       1  UNL1        0.0377
    186 H          15.2243    0.7747   -6.9894 H       1  UNL1        0.0618
    187 H          12.4403    1.4094   -3.7936 H       1  UNL1        0.0618
    188 H          14.6535    1.8062   -4.8025 H       1  UNL1        0.0618
    189 H          20.7137  -11.0863   -7.1506 H       1  UNL1        0.1450
    190 H          21.8293   -9.8063   -6.8007 H       1  UNL1        0.1450
    191 H          18.0486  -13.9241  -10.7749 H       1  UNL1        0.0340
    192 H          17.3220  -12.5221   -9.9706 H       1  UNL1        0.0340
    193 H          17.8108  -12.4240  -11.6892 H       1  UNL1        0.0340
@<TRIPOS>BOND
     1     1    91    1
     2     1    95    1
     3     2    42    2
     4     3    43    2
     5     4    45    2
     6     5    46    2
     7     6    55    2
     8     7    60    2
     9     8    61    2
    10     9    66    2
    11    10    67    2
    12    11    76    2
    13    12    78    2
    14    13    84    2
    15    14    90    2
    16    15    33    1
    17    15    36    1
    18    15    42   am
    19    16    34    1
    20    16    41    1
    21    16    46   am
    22    40    17    1
    23    17    43   am
    24    17   113    1
    25    18    45   am
    26    49    18    1
    27    18   117    1
    28    48    19    1
    29    19   127    1
    30    19   128    1
    31    20    55   am
    32    58    20    1
    33    20   135    1
    34    21    54    1
    35    21   137    1
    36    21   138    1
    37    22    57    1
    38    22    64    2
    39    23    61   am
    40    63    23    1
    41    23   143    1
    42    24    60   am
    43    24   145    1
    44    24   146    1
    45    25    64    1
    46    25   149    1
    47    25   150    1
    48    26    64    1
    49    26   151    1
    50    26   152    1
    51    27    67   am
    52    69    27    1
    53    27   153    1
    54    28    66   am
    55    28   155    1
    56    28   156    1
    57    72    29    1
    58    29    84   am
    59    29   165    1
    60    30    76   am
    61    30    83    1
    62    30   172    1
    63    31    78   am
    64    31   178    1
    65    32    90   am
    66    32   189    1
    67    32   190    1
    68    33    35    1
    69    33    45    1
    70    33    96    1
    71    34    38    1
    72    34    43    1
    73    34    97    1
    74    35    37    1
    75    35    98    1
    76    35    99    1
    77    36    37    1
    78    36   100    1
    79    36   101    1
    80    37   102    1
    81    37   103    1
    82    38    39    1
    83    38   104    1
    84    38   105    1
    85    39    41    1
    86    39   106    1
    87    39   107    1
    88    40    42    1
    89    40    44    1
    90    40   108    1
    91    41   109    1
    92    41   110    1
    93    44    47    1
    94    44   111    1
    95    44   112    1
    96    46    48    1
    97    47    51    1
    98    47   114    1
    99    47   115    1
   100    48    50    1
   101    48   116    1
   102    49    52    1
   103    49    55    1
   104    49   118    1
   105    50    53    1
   106    50   119    1
   107    50   120    1
   108    51    54    1
   109    51   121    1
   110    51   122    1
   111    52    56    1
   112    52   123    1
   113    52   124    1
   114    53    57    1
   115    53   125    1
   116    53   126    1
   117    54   129    1
   118    54   130    1
   119    56    60    1
   120    56   131    1
   121    56   132    1
   122    57   133    1
   123    57   134    1
   124    58    59    1
   125    58    61    1
   126    58   136    1
   127    59    62    1
   128    59   139    1
   129    59   140    1
   130    62    66    1
   131    62   141    1
   132    62   142    1
   133    63    65    1
   134    63    67    1
   135    63   144    1
   136    65    68    1
   137    65   147    1
   138    65   148    1
   139    68    74   ar
   140    68    75   ar
   141    69    70    1
   142    69    76    1
   143    69   154    1
   144    70    77    1
   145    70   157    1
   146    70   158    1
   147    71    72    1
   148    71    73    1
   149    71   159    1
   150    71   160    1
   151    72    78    1
   152    72   161    1
   153    73    79    1
   154    73    80    1
   155    73   162    1
   156    74    81   ar
   157    74   163    1
   158    75    82   ar
   159    75   164    1
   160    77    88   ar
   161    77    89   ar
   162    79   166    1
   163    79   167    1
   164    79   168    1
   165    80   169    1
   166    80   170    1
   167    80   171    1
   168    81    86   ar
   169    81   173    1
   170    82    86   ar
   171    82   174    1
   172    83    84    1
   173    83   175    1
   174    83   176    1
   175    85    90    1
   176    85   177    1
   177    86   179    1
   178    87    91    1
   179    87   180    1
   180    87   181    1
   181    88    92   ar
   182    88   182    1
   183    89    93   ar
   184    89   183    1
   185    91   184    1
   186    91   185    1
   187    92    94   ar
   188    92   186    1
   189    93    94   ar
   190    93   187    1
   191    94   188    1
   192    95   191    1
   193    95   192    1
   194    95   193    1
   195    85    87    1
   196    85    31    1
