@<TRIPOS>MOLECULE
trh_thyrotropin_releasing_hormone
 48 50 0 0 0
SMALL
GASTEIGER

@<TRIPOS>ATOM
      1 O           0.3238    1.2829   -1.4643 O.2     1  UNL1       -0.2735
      2 O           3.4747    1.7243   -1.5121 O.2     1  UNL1       -0.2740
      3 O          -1.9077    0.1139    1.4236 O.2     1  UNL1       -0.2738
      4 O          -5.5070    2.1084    1.0928 O.2     1  UNL1       -0.2758
      5 N           1.7475    1.1657    0.3566 N.am    1  UNL1       -0.2884
      6 N          -1.0605   -0.7241   -0.5779 N.am    1  UNL1       -0.3021
      7 N          -4.3580    0.1232    0.6229 N.am    1  UNL1       -0.3040
      8 N           3.6580    3.9535   -0.9729 N.am    1  UNL1       -0.3278
      9 N           2.1561   -3.8395   -0.0352 N.ar    1  UNL1       -0.3481
     10 N           0.4130   -5.1631    0.3413 N.ar    1  UNL1       -0.2440
     11 C           2.1818    2.5559    0.3183 C.3     1  UNL1        0.1020
     12 C           2.8494    2.7905    1.6684 C.3     1  UNL1       -0.0243
     13 C           2.3243    0.4648    1.5011 C.3     1  UNL1        0.0156
     14 C           3.3846    1.4109    2.0441 C.3     1  UNL1       -0.0350
     15 C           0.3278   -0.7452   -0.2171 C.3     1  UNL1        0.1050
     16 C           0.7880    0.6611   -0.5072 C.2     1  UNL1        0.2369
     17 C          -3.4223   -0.3509   -0.3573 C.3     1  UNL1        0.0998
     18 C           3.1559    2.6836   -0.8140 C.2     1  UNL1        0.2310
     19 C           1.1469   -1.7452   -1.0233 C.3     1  UNL1        0.0160
     20 C          -3.5749    0.6281   -1.5059 C.3     1  UNL1       -0.0177
     21 C          -2.0693   -0.2941    0.2765 C.2     1  UNL1        0.2340
     22 C          -4.0483    1.9200   -0.8404 C.3     1  UNL1        0.0261
     23 C          -4.7558    1.4374    0.4021 C.2     1  UNL1        0.2137
     24 C           1.0578   -3.1377   -0.4456 C.ar    1  UNL1        0.0375
     25 C          -0.0056   -3.9752   -0.2037 C.ar    1  UNL1        0.0485
     26 C           1.7198   -5.0491    0.4292 C.ar    1  UNL1        0.0935
     27 H           1.3303    3.2215    0.1408 H       1  UNL1        0.0597
     28 H           3.6383    3.5477    1.6680 H       1  UNL1        0.0288
     29 H           2.0927    3.0922    2.4034 H       1  UNL1        0.0288
     30 H           2.7355   -0.5036    1.2046 H       1  UNL1        0.0465
     31 H           1.5316    0.3119    2.2416 H       1  UNL1        0.0465
     32 H           3.5432    1.2927    3.1196 H       1  UNL1        0.0281
     33 H           4.3405    1.2333    1.5369 H       1  UNL1        0.0281
     34 H           0.3781   -0.9619    0.8535 H       1  UNL1        0.0598
     35 H          -3.6658   -1.3804   -0.6358 H       1  UNL1        0.0595
     36 H           0.8139   -1.7772   -2.0688 H       1  UNL1        0.0351
     37 H           2.2019   -1.4425   -1.0467 H       1  UNL1        0.0351
     38 H          -4.3615    0.2723   -2.1837 H       1  UNL1        0.0292
     39 H          -2.6733    0.7873   -2.1042 H       1  UNL1        0.0292
     40 H          -1.3104   -1.0082   -1.5210 H       1  UNL1        0.1495
     41 H          -4.7274    2.4836   -1.4845 H       1  UNL1        0.0359
     42 H          -3.2032    2.5486   -0.5426 H       1  UNL1        0.0359
     43 H          -4.6690   -0.4252    1.4187 H       1  UNL1        0.1494
     44 H           4.3323    4.1601   -1.7025 H       1  UNL1        0.1450
     45 H           3.3682    4.7309   -0.3881 H       1  UNL1        0.1450
     46 H           3.1168   -3.5247   -0.0668 H       1  UNL1        0.1665
     47 H          -1.0525   -3.7873   -0.3942 H       1  UNL1        0.0848
     48 H           2.3996   -5.7952    0.8152 H       1  UNL1        0.1027
@<TRIPOS>BOND
     1     1    16    2
     2     2    18    2
     3     3    21    2
     4     4    23    2
     5     5    11    1
     6     5    13    1
     7     5    16   am
     8     6    15    1
     9     6    21   am
    10     6    40    1
    11     7    17    1
    12     7    23   am
    13     7    43    1
    14     8    18   am
    15     8    44    1
    16     8    45    1
    17     9    24   ar
    18     9    26   ar
    19     9    46    1
    20    10    25   ar
    21    10    26   ar
    22    11    12    1
    23    11    18    1
    24    11    27    1
    25    12    14    1
    26    12    28    1
    27    12    29    1
    28    13    14    1
    29    13    30    1
    30    13    31    1
    31    14    32    1
    32    14    33    1
    33    15    16    1
    34    15    19    1
    35    15    34    1
    36    17    20    1
    37    17    21    1
    38    17    35    1
    39    19    24    1
    40    19    36    1
    41    19    37    1
    42    20    22    1
    43    20    38    1
    44    20    39    1
    45    22    23    1
    46    22    41    1
    47    22    42    1
    48    24    25   ar
    49    25    47    1
    50    26    48    1
