@<TRIPOS>MOLECULE
valinomycin
 168 168 0 0 0
SMALL
GASTEIGER

@<TRIPOS>ATOM
      1 O           0.7025   -5.4603    4.0603 O.3     1  UNL1       -0.4503
      2 O          -0.5652   -4.8620    6.1599 O.3     1  UNL1       -0.4503
      3 O           0.2425   -2.6956    3.7101 O.3     1  UNL1       -0.4503
      4 O          -1.4668   -5.3701   10.7602 O.3     1  UNL1       -0.4509
      5 O           0.3362    0.5396    4.0487 O.3     1  UNL1       -0.4509
      6 O          -0.4927   -2.0131    7.4723 O.3     1  UNL1       -0.4509
      7 O          -0.4761   -7.3182    7.8858 O.2     1  UNL1       -0.2717
      8 O          -0.2206   -2.4133   -0.1463 O.2     1  UNL1       -0.2717
      9 O          -2.9753   -4.2164    3.2712 O.2     1  UNL1       -0.2717
     10 O           2.6703   -5.1574    2.3378 O.2     1  UNL1       -0.2487
     11 O           1.6375   -5.7953    6.3997 O.2     1  UNL1       -0.2487
     12 O           2.3010   -3.5183    4.3673 O.2     1  UNL1       -0.2487
     13 O          -2.6611   -3.8743    9.4867 O.2     1  UNL1       -0.2487
     14 O          -0.9989    2.1915    3.2234 O.2     1  UNL1       -0.2487
     15 O          -1.9083   -0.4131    6.6275 O.2     1  UNL1       -0.2487
     16 O           2.0232    1.4193    1.5868 O.2     1  UNL1       -0.2717
     17 O          -0.3643   -2.2305   10.2530 O.2     1  UNL1       -0.2717
     18 O           0.7340    1.0455    6.6955 O.2     1  UNL1       -0.2717
     19 N          -2.1790   -6.2068    7.3525 N.am    1  UNL1       -0.2991
     20 N          -0.6798   -0.8085    1.2986 N.am    1  UNL1       -0.2991
     21 N          -1.7592   -3.1280    4.9085 N.am    1  UNL1       -0.2991
     22 N           1.5963   -0.7600    2.3211 N.am    1  UNL1       -0.2991
     23 N           0.0912   -4.0473    8.9815 N.am    1  UNL1       -0.2991
     24 N           1.1025   -0.9987    5.7850 N.am    1  UNL1       -0.2991
     25 C           0.0458   -6.9082    5.2812 C.3     1  UNL1        0.1806
     26 C          -1.6491   -5.4292    4.8008 C.3     1  UNL1        0.1806
     27 C          -0.4130   -3.2337    2.1447 C.3     1  UNL1        0.1806
     28 C          -2.8135   -6.2172    8.8298 C.3     1  UNL1        0.1228
     29 C          -1.3988   -0.1240    2.4006 C.3     1  UNL1        0.1228
     30 C          -2.4283   -2.7120    6.1151 C.3     1  UNL1        0.1228
     31 C           2.1631   -2.5564    2.3784 C.3     1  UNL1        0.1228
     32 C           0.7969   -5.2473    8.5441 C.3     1  UNL1        0.1228
     33 C           2.0297   -2.0722    5.6739 C.3     1  UNL1        0.1228
     34 C          -0.6587   -8.7591    5.4694 C.3     1  UNL1       -0.0008
     35 C          -1.7342   -6.8780    3.7631 C.3     1  UNL1       -0.0008
     36 C          -0.4307   -4.8928    1.4453 C.3     1  UNL1       -0.0008
     37 C          -4.3781   -5.9096    8.8247 C.3     1  UNL1       -0.0179
     38 C          -2.7023    0.4708    1.7934 C.3     1  UNL1       -0.0179
     39 C          -3.8578   -2.3467    5.6903 C.3     1  UNL1       -0.0179
     40 C           3.7332   -2.0980    2.2787 C.3     1  UNL1       -0.0179
     41 C           1.2309   -6.6320    9.4380 C.3     1  UNL1       -0.0179
     42 C           2.8140   -3.2424    6.6283 C.3     1  UNL1       -0.0179
     43 C          -0.9665   -6.8461    6.8726 C.2     1  UNL1        0.2548
     44 C          -0.4475   -2.1305    1.0323 C.2     1  UNL1        0.2548
     45 C          -2.2012   -4.2151    4.2179 C.2     1  UNL1        0.2548
     46 C           1.7512   -4.5508    2.8816 C.2     1  UNL1        0.3286
     47 C           0.6666   -5.2259    6.9035 C.2     1  UNL1        0.3286
     48 C           1.3552   -2.8538    4.6129 C.2     1  UNL1        0.3286
     49 C          -2.3213   -5.0336    9.7343 C.2     1  UNL1        0.3286
     50 C          -0.7015    1.0037    3.2646 C.2     1  UNL1        0.3286
     51 C          -1.6295   -1.5784    6.7909 C.2     1  UNL1        0.3286
     52 C          -0.9938   -9.4051    6.9513 C.3     1  UNL1       -0.0588
     53 C          -1.9943   -9.4841    4.8172 C.3     1  UNL1       -0.0588
     54 C          -2.8951   -7.1427    2.7758 C.3     1  UNL1       -0.0588
     55 C          -0.5573   -7.8119    3.0958 C.3     1  UNL1       -0.0588
     56 C          -1.3518   -5.1050    0.2220 C.3     1  UNL1       -0.0588
     57 C           0.7381   -5.8875    0.9621 C.3     1  UNL1       -0.0588
     58 C          -5.2090   -6.7604    7.8775 C.3     1  UNL1       -0.0605
     59 C          -5.0331   -5.9750   10.2308 C.3     1  UNL1       -0.0605
     60 C          -2.4241    1.5347    0.7122 C.3     1  UNL1       -0.0605
     61 C          -3.6120   -0.5909    1.1640 C.3     1  UNL1       -0.0605
     62 C          -4.6729   -1.9228    6.8822 C.3     1  UNL1       -0.0605
     63 C          -3.8765   -1.3304    4.5532 C.3     1  UNL1       -0.0605
     64 C           4.0227   -1.1378    1.0619 C.3     1  UNL1       -0.0605
     65 C           4.6723   -1.5690    3.4093 C.3     1  UNL1       -0.0605
     66 C           0.2473   -7.5796   10.1940 C.3     1  UNL1       -0.0605
     67 C           2.2045   -7.6035    8.7060 C.3     1  UNL1       -0.0605
     68 C           3.6852   -4.4776    5.9478 C.3     1  UNL1       -0.0605
     69 C           3.7369   -2.9730    7.7988 C.3     1  UNL1       -0.0605
     70 C          -0.6275   -4.3167   11.3036 C.3     1  UNL1        0.1756
     71 C           1.5384    1.3382    3.8759 C.3     1  UNL1        0.1756
     72 C           0.2947   -0.9077    8.0536 C.3     1  UNL1        0.1756
     73 C           1.8630    0.6449    2.5484 C.2     1  UNL1        0.2543
     74 C          -0.2447   -3.4524   10.1591 C.2     1  UNL1        0.2543
     75 C           0.7276   -0.1699    6.8060 C.2     1  UNL1        0.2543
     76 C           0.7049   -4.7170   11.9407 C.3     1  UNL1       -0.0190
     77 C           2.8498    1.2893    4.6708 C.3     1  UNL1       -0.0190
     78 C           1.6191   -1.1127    8.6901 C.3     1  UNL1       -0.0190
     79 H           1.0519   -7.3070    5.3952 H       1  UNL1        0.0835
     80 H          -2.5594   -5.6442    5.3798 H       1  UNL1        0.0835
     81 H          -1.4625   -3.1132    2.3877 H       1  UNL1        0.0835
     82 H          -2.6158   -7.1876    9.2926 H       1  UNL1        0.0617
     83 H          -1.6497   -0.8912    3.1189 H       1  UNL1        0.0617
     84 H          -2.5022   -3.5256    6.8262 H       1  UNL1        0.0617
     85 H           1.8694   -2.6508    1.3750 H       1  UNL1        0.0617
     86 H           1.8133   -4.8419    8.6207 H       1  UNL1        0.0617
     87 H           2.8957   -1.5679    5.2600 H       1  UNL1        0.0617
     88 H           0.2102   -9.3580    5.1870 H       1  UNL1        0.0336
     89 H          -2.1484   -7.4061    4.5940 H       1  UNL1        0.0336
     90 H          -0.9136   -5.4194    2.2492 H       1  UNL1        0.0336
     91 H          -4.5220   -4.8759    8.4795 H       1  UNL1        0.0319
     92 H          -3.2563    0.9539    2.6077 H       1  UNL1        0.0319
     93 H          -4.3391   -3.2506    5.2852 H       1  UNL1        0.0319
     94 H           4.1659   -3.0601    2.0191 H       1  UNL1        0.0319
     95 H           1.8746   -6.2455   10.2304 H       1  UNL1        0.0319
     96 H           1.9260   -3.6348    7.0616 H       1  UNL1        0.0319
     97 H          -2.1552   -5.2379    7.0979 H       1  UNL1        0.1496
     98 H          -0.5348   -0.2496    0.4644 H       1  UNL1        0.1496
     99 H          -1.5385   -2.3546    4.3027 H       1  UNL1        0.1496
    100 H           1.5043   -0.6346    1.3147 H       1  UNL1        0.1496
    101 H           0.1529   -3.3157    8.2849 H       1  UNL1        0.1496
    102 H           1.0674   -0.4947    4.9435 H       1  UNL1        0.1496
    103 H          -1.8808   -8.9455    7.4326 H       1  UNL1        0.0234
    104 H          -1.2976  -10.4583    6.9076 H       1  UNL1        0.0234
    105 H          -0.1361   -9.4541    7.6205 H       1  UNL1        0.0234
    106 H          -1.7497  -10.0341    3.9070 H       1  UNL1        0.0234
    107 H          -2.4132  -10.2725    5.4572 H       1  UNL1        0.0234
    108 H          -2.9252   -8.9186    4.7183 H       1  UNL1        0.0234
    109 H          -2.6692   -6.8010    1.7701 H       1  UNL1        0.0234
    110 H          -3.0195   -8.2362    2.6532 H       1  UNL1        0.0234
    111 H          -3.8555   -6.7804    3.1273 H       1  UNL1        0.0234
    112 H           0.3113   -8.2014    3.6393 H       1  UNL1        0.0234
    113 H          -0.9330   -8.7157    2.5988 H       1  UNL1        0.0234
    114 H          -0.0438   -7.2892    2.3559 H       1  UNL1        0.0234
    115 H          -0.9179   -4.6579   -0.6746 H       1  UNL1        0.0234
    116 H          -1.4176   -6.1838   -0.0212 H       1  UNL1        0.0234
    117 H          -2.3752   -4.7868    0.3871 H       1  UNL1        0.0234
    118 H           1.3255   -6.3638    1.7532 H       1  UNL1        0.0234
    119 H           0.3517   -6.8415    0.5538 H       1  UNL1        0.0234
    120 H           1.3887   -5.4900    0.1899 H       1  UNL1        0.0234
    121 H          -5.1656   -7.8169    8.1487 H       1  UNL1        0.0233
    122 H          -6.2605   -6.4439    7.9278 H       1  UNL1        0.0233
    123 H          -4.8838   -6.6268    6.8444 H       1  UNL1        0.0233
    124 H          -4.5626   -5.3032   10.9577 H       1  UNL1        0.0233
    125 H          -6.0871   -5.6648   10.1797 H       1  UNL1        0.0233
    126 H          -5.0113   -6.9887   10.6431 H       1  UNL1        0.0233
    127 H          -1.8841    1.1204   -0.1453 H       1  UNL1        0.0233
    128 H          -3.3662    1.9414    0.3346 H       1  UNL1        0.0233
    129 H          -1.8379    2.3772    1.0838 H       1  UNL1        0.0233
    130 H          -3.8157   -1.4281    1.8270 H       1  UNL1        0.0233
    131 H          -4.5765   -0.1423    0.9081 H       1  UNL1        0.0233
    132 H          -3.1800   -1.0100    0.2503 H       1  UNL1        0.0233
    133 H          -4.1502   -1.1758    7.4800 H       1  UNL1        0.0233
    134 H          -5.6298   -1.5161    6.5572 H       1  UNL1        0.0233
    135 H          -4.8546   -2.7967    7.5129 H       1  UNL1        0.0233
    136 H          -3.4156   -1.7895    3.6806 H       1  UNL1        0.0233
    137 H          -4.8840   -1.0561    4.2467 H       1  UNL1        0.0233
    138 H          -3.3102   -0.4246    4.7730 H       1  UNL1        0.0233
    139 H           4.5119   -0.1879    1.3470 H       1  UNL1        0.0233
    140 H           4.7044   -1.6565    0.3911 H       1  UNL1        0.0233
    141 H           3.1683   -0.8409    0.4485 H       1  UNL1        0.0233
    142 H           4.2810   -0.9030    4.1764 H       1  UNL1        0.0233
    143 H           5.1658   -2.4075    3.9004 H       1  UNL1        0.0233
    144 H           5.5058   -0.9792    2.9847 H       1  UNL1        0.0233
    145 H           0.0447   -8.5208    9.6657 H       1  UNL1        0.0233
    146 H           0.6648   -7.8983   11.1527 H       1  UNL1        0.0233
    147 H          -0.7323   -7.1858   10.3947 H       1  UNL1        0.0233
    148 H           2.9441   -7.0895    8.0954 H       1  UNL1        0.0233
    149 H           2.7485   -8.2002    9.4526 H       1  UNL1        0.0233
    150 H           1.6913   -8.3371    8.0766 H       1  UNL1        0.0233
    151 H           4.6406   -4.1206    5.5602 H       1  UNL1        0.0233
    152 H           3.8920   -5.2481    6.7070 H       1  UNL1        0.0233
    153 H           3.2545   -5.0989    5.1482 H       1  UNL1        0.0233
    154 H           4.1379   -1.9692    7.8084 H       1  UNL1        0.0233
    155 H           3.2207   -3.2417    8.7236 H       1  UNL1        0.0233
    156 H           4.6070   -3.6426    7.8199 H       1  UNL1        0.0233
    157 H          -1.2146   -3.7410   12.0254 H       1  UNL1        0.0829
    158 H           1.2248    2.3982    3.8974 H       1  UNL1        0.0829
    159 H          -0.3934   -0.2518    8.6581 H       1  UNL1        0.0829
    160 H           1.0359   -3.9499   12.6512 H       1  UNL1        0.0270
    161 H           0.6739   -5.6884   12.4315 H       1  UNL1        0.0270
    162 H           1.5298   -4.7053   11.2212 H       1  UNL1        0.0270
    163 H           3.0980    2.2730    5.0958 H       1  UNL1        0.0270
    164 H           2.9209    0.5813    5.4874 H       1  UNL1        0.0270
    165 H           3.6843    1.1046    3.9840 H       1  UNL1        0.0270
    166 H           1.9201   -0.2268    9.2783 H       1  UNL1        0.0270
    167 H           1.6974   -1.9930    9.3086 H       1  UNL1        0.0270
    168 H           2.3968   -1.1359    7.9680 H       1  UNL1        0.0270
@<TRIPOS>BOND
     1     1    25    1
     2     1    46    1
     3     2    26    1
     4     2    47    1
     5     3    27    1
     6     3    48    1
     7     4    49    1
     8     4    70    1
     9     5    50    1
    10     5    71    1
    11     6    51    1
    12     6    72    1
    13     7    43    2
    14     8    44    2
    15     9    45    2
    16    10    46    2
    17    11    47    2
    18    12    48    2
    19    13    49    2
    20    14    50    2
    21    15    51    2
    22    16    73    2
    23    17    74    2
    24    18    75    2
    25    19    28    1
    26    19    43   am
    27    19    97    1
    28    20    29    1
    29    20    44   am
    30    20    98    1
    31    21    30    1
    32    21    45   am
    33    21    99    1
    34    22    31    1
    35    22    73   am
    36    22   100    1
    37    23    32    1
    38    23    74   am
    39    23   101    1
    40    24    33    1
    41    24    75   am
    42    24   102    1
    43    25    34    1
    44    25    43    1
    45    25    79    1
    46    26    45    1
    47    27    44    1
    48    28    49    1
    49    29    50    1
    50    30    51    1
    51    31    40    1
    52    31    46    1
    53    31    85    1
    54    32    41    1
    55    32    47    1
    56    32    86    1
    57    33    42    1
    58    33    48    1
    59    33    87    1
    60    34    52    1
    61    34    53    1
    62    34    88    1
    63    35    54    1
    64    35    55    1
    65    35    89    1
    66    36    56    1
    67    36    57    1
    68    36    90    1
    69    37    58    1
    70    37    59    1
    71    37    91    1
    72    38    60    1
    73    38    61    1
    74    38    92    1
    75    39    62    1
    76    39    63    1
    77    39    93    1
    78    40    64    1
    79    40    65    1
    80    40    94    1
    81    41    66    1
    82    41    67    1
    83    41    95    1
    84    42    68    1
    85    42    69    1
    86    42    96    1
    87    52   103    1
    88    52   104    1
    89    52   105    1
    90    53   106    1
    91    53   107    1
    92    53   108    1
    93    54   109    1
    94    54   110    1
    95    54   111    1
    96    55   112    1
    97    55   113    1
    98    55   114    1
    99    56   115    1
   100    56   116    1
   101    56   117    1
   102    57   118    1
   103    57   119    1
   104    57   120    1
   105    58   121    1
   106    58   122    1
   107    58   123    1
   108    59   124    1
   109    59   125    1
   110    59   126    1
   111    60   127    1
   112    60   128    1
   113    60   129    1
   114    61   130    1
   115    61   131    1
   116    61   132    1
   117    62   133    1
   118    62   134    1
   119    62   135    1
   120    63   136    1
   121    63   137    1
   122    63   138    1
   123    64   139    1
   124    64   140    1
   125    64   141    1
   126    65   142    1
   127    65   143    1
   128    65   144    1
   129    66   145    1
   130    66   146    1
   131    66   147    1
   132    67   148    1
   133    67   149    1
   134    67   150    1
   135    68   151    1
   136    68   152    1
   137    68   153    1
   138    69   154    1
   139    69   155    1
   140    69   156    1
   141    70    74    1
   142    70    76    1
   143    70   157    1
   144    71    73    1
   145    71    77    1
   146    71   158    1
   147    72    75    1
   148    72    78    1
   149    72   159    1
   150    76   160    1
   151    76   161    1
   152    76   162    1
   153    77   163    1
   154    77   164    1
   155    77   165    1
   156    78   166    1
   157    78   167    1
   158    78   168    1
   159    26    80    1
   160    26    35    1
   161    27    81    1
   162    27    36    1
   163    28    82    1
   164    28    37    1
   165    29    83    1
   166    29    38    1
   167    30    84    1
   168    30    39    1
