@<TRIPOS>MOLECULE
vasopressin
 140 143 0 0 0
SMALL
GASTEIGER

@<TRIPOS>ATOM
      1 S           6.2661   -3.2646   -0.4024 S.3     1  UNL1       -0.0907
      2 S           8.5175   -2.7568   -0.1990 S.3     1  UNL1       -0.0910
      3 O          -0.6588   -5.6599   -1.9231 O.2     1  UNL1       -0.2738
      4 O           2.4344   -2.7977   -3.0209 O.2     1  UNL1       -0.2735
      5 O          -1.1152   -5.1935   -7.0937 O.2     1  UNL1       -0.2738
      6 O           2.0006    1.5820   -2.8130 O.2     1  UNL1       -0.2737
      7 O           5.9656    1.4492    0.1850 O.2     1  UNL1       -0.2738
      8 O           5.0791    1.4631   -6.4069 O.2     1  UNL1       -0.2760
      9 O           5.1362   -2.5422   -3.3761 O.2     1  UNL1       -0.2738
     10 O           8.6293    1.2245   -5.0965 O.2     1  UNL1       -0.2738
     11 O           2.3768   -1.6180   -7.5348 O.2     1  UNL1       -0.2743
     12 O           7.5432   -3.7123   -2.8453 O.2     1  UNL1       -0.2741
     13 O           9.8106    0.3613    0.3995 O.2     1  UNL1       -0.2760
     14 O          13.4196    2.3423   -8.4227 O.3     1  UNL1       -0.5068
     15 N           1.4253   -2.5074   -1.0469 N.am    1  UNL1       -0.2884
     16 N          -0.2856   -4.1398   -3.5630 N.am    1  UNL1       -0.3025
     17 N           2.9949    0.1150   -1.4862 N.am    1  UNL1       -0.3017
     18 N           0.6264   -3.9169   -6.4388 N.am    1  UNL1       -0.3052
     19 N           5.2807    2.1061   -1.7947 N.am    1  UNL1       -0.3020
     20 N           6.4623   -1.0610   -2.4810 N.am    1  UNL1       -0.3025
     21 N          -4.6950   -4.1286   -6.1230 N.pl3   1  UNL1       -0.1138
     22 N           7.2357   -0.4464   -5.4747 N.am    1  UNL1       -0.3022
     23 N           8.7278   -1.9064   -3.5006 N.am    1  UNL1       -0.3024
     24 N           3.3639    0.2134   -5.6405 N.am    1  UNL1       -0.3293
     25 N          10.4981   -3.9948   -4.3097 N.3     1  UNL1       -0.3193
     26 N           0.1942   -1.3172   -8.0604 N.am    1  UNL1       -0.3280
     27 N          -4.9561   -6.2053   -7.2370 N.pl3   1  UNL1       -0.2893
     28 N          -5.6023   -4.3226   -8.1942 N.pl3   1  UNL1       -0.2893
     29 N           9.4344    2.4077    1.2167 N.am    1  UNL1       -0.3293
     30 C           0.5035   -3.6858   -1.0849 C.3     1  UNL1        0.1023
     31 C          -0.6711   -3.1431   -0.2351 C.3     1  UNL1       -0.0243
     32 C          -0.0327   -2.2486    0.8183 C.3     1  UNL1       -0.0350
     33 C           1.1767   -1.6769    0.1247 C.3     1  UNL1        0.0156
     34 C          -0.1565   -4.5788   -2.2521 C.2     1  UNL1        0.2342
     35 C           2.5140   -2.3280   -1.8795 C.2     1  UNL1        0.2373
     36 C           3.6604   -1.2784   -1.4502 C.3     1  UNL1        0.1094
     37 C          -0.6843   -5.1030   -4.6683 C.3     1  UNL1        0.0995
     38 C           4.7164   -1.7520   -0.2302 C.3     1  UNL1        0.0309
     39 C          -2.0180   -5.9394   -4.5902 C.3     1  UNL1       -0.0230
     40 C          -0.4730   -4.6953   -6.1689 C.2     1  UNL1        0.2337
     41 C          -3.4125   -5.4405   -4.1765 C.3     1  UNL1       -0.0165
     42 C           3.0837    1.1728   -2.3744 C.2     1  UNL1        0.2344
     43 C           4.3696    1.8453   -2.9107 C.3     1  UNL1        0.1076
     44 C          -4.2038   -4.2683   -4.7540 C.3     1  UNL1        0.1048
     45 C           4.9767    1.0954   -4.0447 C.3     1  UNL1        0.0506
     46 C           6.9229    0.1627   -1.6295 C.3     1  UNL1        0.0999
     47 C           5.9522    1.2200   -1.0205 C.2     1  UNL1        0.2340
     48 C           0.9982   -3.5924   -7.8098 C.3     1  UNL1        0.0879
     49 C           8.2311    0.8817   -2.0136 C.3     1  UNL1       -0.0177
     50 C          10.0856   -3.4256   -1.5971 C.3     1  UNL1        0.0276
     51 C           4.4358    1.0364   -5.4524 C.2     1  UNL1        0.2127
     52 C           6.3933   -1.5815   -5.1033 C.3     1  UNL1        0.1034
     53 C           9.7834   -4.0572   -3.0053 C.3     1  UNL1        0.0921
     54 C           5.9860   -1.6698   -3.6209 C.2     1  UNL1        0.2343
     55 C           9.4600   -0.9352   -4.3303 C.3     1  UNL1        0.1033
     56 C           8.7826    1.9734   -1.0709 C.3     1  UNL1        0.0259
     57 C           6.8577   -2.9743   -5.5840 C.3     1  UNL1       -0.0007
     58 C           1.2884   -2.1036   -7.8332 C.2     1  UNL1        0.2277
     59 C           8.3988    0.0213   -4.9403 C.2     1  UNL1        0.2343
     60 C           8.6180   -3.2179   -3.1688 C.2     1  UNL1        0.2313
     61 C          10.2784   -1.3227   -5.5450 C.3     1  UNL1       -0.0007
     62 C          -4.9900   -4.8718   -7.0969 C.cat   1  UNL1        0.3765
     63 C           6.0868   -4.2787   -5.4520 C.ar    1  UNL1       -0.0451
     64 C           9.3669    1.4857    0.2296 C.2     1  UNL1        0.2106
     65 C          10.9687   -0.1710   -6.2457 C.ar    1  UNL1       -0.0449
     66 C           4.7069   -4.4349   -5.5720 C.ar    1  UNL1       -0.0585
     67 C           6.8642   -5.4450   -5.2687 C.ar    1  UNL1       -0.0585
     68 C          11.9527    0.5748   -5.5807 C.ar    1  UNL1       -0.0551
     69 C          10.7000    0.0844   -7.5959 C.ar    1  UNL1       -0.0551
     70 C           4.1687   -5.7184   -5.7423 C.ar    1  UNL1       -0.0615
     71 C           6.3355   -6.7166   -5.4338 C.ar    1  UNL1       -0.0615
     72 C           4.9942   -6.8462   -5.7479 C.ar    1  UNL1       -0.0617
     73 C          12.7627    1.4511   -6.2952 C.ar    1  UNL1       -0.0199
     74 C          11.5214    0.9484   -8.3121 C.ar    1  UNL1       -0.0199
     75 C          12.5707    1.5910   -7.6660 C.ar    1  UNL1        0.1169
     76 H           1.0381   -4.4352   -0.4776 H       1  UNL1        0.0597
     77 H          -1.3379   -2.5438   -0.8679 H       1  UNL1        0.0288
     78 H          -1.2680   -3.9313    0.2320 H       1  UNL1        0.0288
     79 H          -0.7017   -1.4473    1.1520 H       1  UNL1        0.0281
     80 H           0.2728   -2.8194    1.7003 H       1  UNL1        0.0281
     81 H           0.9390   -0.6669   -0.2093 H       1  UNL1        0.0465
     82 H           2.0470   -1.6296    0.7835 H       1  UNL1        0.0465
     83 H           4.2392   -1.1296   -2.3139 H       1  UNL1        0.0603
     84 H           0.4329   -3.4592   -3.7963 H       1  UNL1        0.1495
     85 H           0.0967   -5.8776   -4.5589 H       1  UNL1        0.0594
     86 H           5.1950   -0.9077    0.2657 H       1  UNL1        0.0407
     87 H           4.1085   -2.2427    0.5355 H       1  UNL1        0.0407
     88 H           1.9912   -0.0240   -1.5535 H       1  UNL1        0.1495
     89 H          -2.1612   -6.4837   -5.5337 H       1  UNL1        0.0289
     90 H          -1.8008   -6.7543   -3.8823 H       1  UNL1        0.0289
     91 H          -4.0705   -6.3221   -4.1988 H       1  UNL1        0.0298
     92 H          -3.3111   -5.2070   -3.1060 H       1  UNL1        0.0298
     93 H           4.1091    2.8512   -3.2645 H       1  UNL1        0.0599
     94 H          -5.1069   -4.2196   -4.1213 H       1  UNL1        0.0693
     95 H          -3.6576   -3.3501   -4.5257 H       1  UNL1        0.0693
     96 H           6.0385    1.3361   -4.1187 H       1  UNL1        0.0381
     97 H           4.8492    0.0824   -3.7456 H       1  UNL1        0.0381
     98 H           1.2735   -3.6629   -5.7038 H       1  UNL1        0.1492
     99 H           4.9665    2.8712   -1.2071 H       1  UNL1        0.1495
    100 H           7.1998   -0.3674   -0.7076 H       1  UNL1        0.0595
    101 H           1.8934   -4.1568   -8.0856 H       1  UNL1        0.0558
    102 H           0.2051   -3.8356   -8.5276 H       1  UNL1        0.0558
    103 H           8.9940    0.1279   -2.0762 H       1  UNL1        0.0292
    104 H           8.0265    1.3664   -2.9487 H       1  UNL1        0.0292
    105 H          10.7392   -4.0962   -1.0268 H       1  UNL1        0.0405
    106 H          10.6705   -2.5014   -1.7440 H       1  UNL1        0.0405
    107 H           5.4675   -1.3982   -5.6586 H       1  UNL1        0.0598
    108 H           6.3537   -1.8398   -1.8249 H       1  UNL1        0.1495
    109 H           9.5002   -5.1066   -2.8876 H       1  UNL1        0.0563
    110 H          10.0906   -0.3552   -3.6290 H       1  UNL1        0.0598
    111 H           9.6191    2.4066   -1.6261 H       1  UNL1        0.0359
    112 H           8.0695    2.7464   -0.9201 H       1  UNL1        0.0359
    113 H           7.3066   -2.9249   -6.5766 H       1  UNL1        0.0336
    114 H           7.7155   -3.1907   -5.0055 H       1  UNL1        0.0336
    115 H           6.7792    0.2815   -6.0275 H       1  UNL1        0.1495
    116 H          11.0922   -1.9881   -5.2776 H       1  UNL1        0.0336
    117 H           9.6307   -1.8435   -6.2598 H       1  UNL1        0.0336
    118 H           8.0120   -1.4478   -2.9634 H       1  UNL1        0.1495
    119 H           3.0048   -0.4042   -4.9230 H       1  UNL1        0.1449
    120 H           3.2279   -0.1593   -6.5860 H       1  UNL1        0.1449
    121 H          10.5332   -4.9211   -4.7496 H       1  UNL1        0.1189
    122 H           9.8351   -3.5694   -4.9769 H       1  UNL1        0.1189
    123 H           4.0362   -3.5813   -5.5229 H       1  UNL1        0.0620
    124 H           7.9117   -5.3667   -4.9951 H       1  UNL1        0.0620
    125 H          -0.7434   -1.6968   -8.1133 H       1  UNL1        0.1450
    126 H           0.3027   -0.3160   -7.9675 H       1  UNL1        0.1450
    127 H          12.1249    0.4456   -4.5147 H       1  UNL1        0.0621
    128 H           9.8780   -0.4140   -8.1045 H       1  UNL1        0.0621
    129 H          -4.5764   -6.4322   -8.1469 H       1  UNL1        0.2546
    130 H          -4.3913   -6.6312   -6.5164 H       1  UNL1        0.2546
    131 H          -6.0413   -3.4257   -8.0000 H       1  UNL1        0.2546
    132 H          -6.1899   -4.9321   -8.7463 H       1  UNL1        0.2546
    133 H           8.9321    3.3305    1.1484 H       1  UNL1        0.1449
    134 H           9.8055    2.1230    2.1149 H       1  UNL1        0.1449
    135 H           3.1013   -5.8450   -5.8955 H       1  UNL1        0.0618
    136 H           6.9825   -7.5843   -5.3445 H       1  UNL1        0.0618
    137 H           4.5916   -7.8273   -5.9789 H       1  UNL1        0.0618
    138 H          13.5570    1.9759   -5.7757 H       1  UNL1        0.0654
    139 H          11.3643    1.0892   -9.3767 H       1  UNL1        0.0654
    140 H          14.0987    2.7109   -7.8351 H       1  UNL1        0.2921
@<TRIPOS>BOND
     1     1     2    1
     2     1    38    1
     3     2    50    1
     4     3    34    2
     5     4    35    2
     6     5    40    2
     7     6    42    2
     8     7    47    2
     9     8    51    2
    10     9    54    2
    11    10    59    2
    12    11    58    2
    13    12    60    2
    14    13    64    2
    15    14    75    1
    16    14   140    1
    17    15    30    1
    18    15    33    1
    19    15    35   am
    20    16    34   am
    21    37    16    1
    22    16    84    1
    23    17    36    1
    24    17    42   am
    25    17    88    1
    26    18    40   am
    27    18    48    1
    28    18    98    1
    29    19    43    1
    30    19    47   am
    31    19    99    1
    32    20    46    1
    33    20    54   am
    34    20   108    1
    35    21    44    1
    36    21    62    2
    37    22    52    1
    38    22    59   am
    39    22   115    1
    40    23    55    1
    41    23    60   am
    42    23   118    1
    43    24    51   am
    44    24   119    1
    45    24   120    1
    46    53    25    1
    47    25   121    1
    48    25   122    1
    49    26    58   am
    50    26   125    1
    51    26   126    1
    52    27    62    1
    53    27   129    1
    54    27   130    1
    55    28    62    1
    56    28   131    1
    57    28   132    1
    58    29    64   am
    59    29   133    1
    60    29   134    1
    61    30    31    1
    62    31    32    1
    63    31    77    1
    64    31    78    1
    65    32    33    1
    66    32    79    1
    67    32    80    1
    68    33    81    1
    69    33    82    1
    70    36    38    1
    71    37    39    1
    72    37    40    1
    73    37    85    1
    74    38    86    1
    75    38    87    1
    76    39    41    1
    77    39    89    1
    78    39    90    1
    79    41    44    1
    80    41    91    1
    81    41    92    1
    82    42    43    1
    83    43    45    1
    84    43    93    1
    85    44    94    1
    86    44    95    1
    87    45    51    1
    88    45    96    1
    89    45    97    1
    90    46    47    1
    91    46    49    1
    92    46   100    1
    93    48    58    1
    94    48   101    1
    95    48   102    1
    96    49    56    1
    97    49   103    1
    98    49   104    1
    99    50    53    1
   100    50   105    1
   101    50   106    1
   102    52    54    1
   103    52    57    1
   104    52   107    1
   105    53    60    1
   106    53   109    1
   107    55    59    1
   108    55    61    1
   109    55   110    1
   110    56    64    1
   111    56   111    1
   112    56   112    1
   113    57    63    1
   114    57   113    1
   115    57   114    1
   116    61    65    1
   117    61   116    1
   118    61   117    1
   119    63    66   ar
   120    63    67   ar
   121    65    68   ar
   122    65    69   ar
   123    66    70   ar
   124    66   123    1
   125    67    71   ar
   126    67   124    1
   127    68    73   ar
   128    68   127    1
   129    69    74   ar
   130    69   128    1
   131    70    72   ar
   132    70   135    1
   133    71    72   ar
   134    71   136    1
   135    72   137    1
   136    73    75   ar
   137    73   138    1
   138    74    75   ar
   139    74   139    1
   140    30    76    1
   141    30    34    1
   142    36    83    1
   143    36    35    1
