@<TRIPOS>MOLECULE
12400272
 21 22 0 0 0
SMALL
GASTEIGER

@<TRIPOS>ATOM
      1 N           1.0856   -1.1468    0.2962 N.3     1  UNL1       -0.3130
      2 C           0.0344    0.7810   -0.6366 C.3     1  UNL1       -0.0245
      3 C           0.0287   -0.7580   -0.6426 C.3     1  UNL1        0.0105
      4 C          -1.3114    1.2149   -0.0527 C.3     1  UNL1       -0.0487
      5 C          -1.3553   -1.1668   -0.1451 C.3     1  UNL1       -0.0373
      6 C           1.2348    1.1638    0.2273 C.3     1  UNL1       -0.0362
      7 C          -1.8046    0.0004    0.7241 C.3     1  UNL1       -0.0513
      8 C           2.0877   -0.0884    0.2294 C.3     1  UNL1       -0.0035
      9 H           0.1677    1.1793   -1.6493 H       1  UNL1        0.0316
     10 H           0.2384   -1.1605   -1.6399 H       1  UNL1        0.0463
     11 H          -2.0100    1.4271   -0.8716 H       1  UNL1        0.0268
     12 H          -1.2485    2.1125    0.5697 H       1  UNL1        0.0268
     13 H          -1.3594   -2.1169    0.3987 H       1  UNL1        0.0280
     14 H          -2.0350   -1.2723   -0.9999 H       1  UNL1        0.0280
     15 H           0.9293    1.4168    1.2500 H       1  UNL1        0.0281
     16 H           1.7729    2.0242   -0.1829 H       1  UNL1        0.0281
     17 H          -1.3260   -0.0455    1.7091 H       1  UNL1        0.0266
     18 H          -2.8884    0.0151    0.8695 H       1  UNL1        0.0266
     19 H           2.6751   -0.1680   -0.6928 H       1  UNL1        0.0424
     20 H           2.7686   -0.1207    1.0844 H       1  UNL1        0.0424
     21 H           1.4865   -2.0463    0.0367 H       1  UNL1        0.1222
@<TRIPOS>BOND
     1     1     3    1
     2     1     8    1
     3     1    21    1
     4     2     3    1
     5     2     4    1
     6     2     6    1
     7     2     9    1
     8     3     5    1
     9     3    10    1
    10     4     7    1
    11     4    11    1
    12     4    12    1
    13     5     7    1
    14     5    13    1
    15     5    14    1
    16     6     8    1
    17     6    15    1
    18     6    16    1
    19     7    17    1
    20     7    18    1
    21     8    19    1
    22     8    20    1
