@<TRIPOS>MOLECULE
13631121
 18 19 0 0 0
SMALL
GASTEIGER

@<TRIPOS>ATOM
      1 N           0.0004    1.1015   -0.3035 N.3     1  UNL1       -0.3020
      2 C          -0.0004   -1.1051   -0.3381 C.3     1  UNL1       -0.0259
      3 C          -0.0001    0.0341   -1.3401 C.3     1  UNL1        0.0018
      4 C           1.2427   -0.7727    0.4886 C.3     1  UNL1       -0.0362
      5 C          -1.2434   -0.7718    0.4882 C.3     1  UNL1       -0.0362
      6 C           1.2053    0.7566    0.5022 C.3     1  UNL1       -0.0008
      7 C          -1.2045    0.7574    0.5027 C.3     1  UNL1       -0.0008
      8 H          -0.0006   -2.1135   -0.7559 H       1  UNL1        0.0314
      9 H           0.8920    0.0715   -1.9761 H       1  UNL1        0.0429
     10 H          -0.8923    0.0721   -1.9759 H       1  UNL1        0.0429
     11 H           2.1498   -1.1291   -0.0124 H       1  UNL1        0.0281
     12 H           1.2040   -1.2005    1.4952 H       1  UNL1        0.0281
     13 H          -1.2055   -1.2001    1.4947 H       1  UNL1        0.0281
     14 H          -2.1507   -1.1270   -0.0134 H       1  UNL1        0.0281
     15 H           1.1619    1.1691    1.5162 H       1  UNL1        0.0427
     16 H           2.1011    1.1670    0.0212 H       1  UNL1        0.0427
     17 H          -2.1001    1.1689    0.0225 H       1  UNL1        0.0427
     18 H          -1.1600    1.1693    1.5169 H       1  UNL1        0.0427
@<TRIPOS>BOND
     1     1     3    1
     2     1     6    1
     3     1     7    1
     4     2     3    1
     5     2     4    1
     6     2     5    1
     7     2     8    1
     8     3     9    1
     9     3    10    1
    10     4     6    1
    11     4    11    1
    12     4    12    1
    13     5     7    1
    14     5    13    1
    15     5    14    1
    16     6    15    1
    17     6    16    1
    18     7    17    1
    19     7    18    1
