@<TRIPOS>MOLECULE
10422
 11 11 0 0 0
SMALL
GASTEIGER

@<TRIPOS>ATOM
      1 N          -1.0321   -0.0001   -0.1645 N.3     1  UNL1       -0.3159
      2 C           1.0711    0.0001   -0.1528 C.3     1  UNL1       -0.0278
      3 C          -0.0196    1.0347    0.1586 C.3     1  UNL1       -0.0030
      4 C          -0.0194   -1.0347    0.1587 C.3     1  UNL1       -0.0030
      5 H           1.4023    0.0001   -1.1976 H       1  UNL1        0.0290
      6 H           1.9421    0.0002    0.5063 H       1  UNL1        0.0290
      7 H          -0.0431    1.3604    1.2053 H       1  UNL1        0.0424
      8 H          -0.0390    1.9140   -0.4905 H       1  UNL1        0.0424
      9 H          -0.0386   -1.9140   -0.4904 H       1  UNL1        0.0424
     10 H          -0.0429   -1.3603    1.2053 H       1  UNL1        0.0424
     11 H          -1.8516   -0.0002    0.4404 H       1  UNL1        0.1219
@<TRIPOS>BOND
     1     1     3    1
     2     1     4    1
     3     1    11    1
     4     2     3    1
     5     2     4    1
     6     2     5    1
     7     2     6    1
     8     3     7    1
     9     3     8    1
    10     4     9    1
    11     4    10    1
