@<TRIPOS>MOLECULE
1519487
 16 16 0 0 0
SMALL
GASTEIGER

@<TRIPOS>ATOM
      1 N           1.2178    0.7106   -0.2368 N.3     1  UNL1       -0.3038
      2 N          -1.2175    0.7111   -0.2369 N.3     1  UNL1       -0.3038
      3 C          -0.0004   -1.4310   -0.2124 C.3     1  UNL1       -0.0278
      4 C           1.2583   -0.6808    0.2212 C.3     1  UNL1       -0.0018
      5 C          -1.2586   -0.6802    0.2213 C.3     1  UNL1       -0.0018
      6 C           0.0002    1.3703    0.2436 C.3     1  UNL1        0.0468
      7 H          -0.0003   -1.5485   -1.3039 H       1  UNL1        0.0290
      8 H          -0.0006   -2.4379    0.2196 H       1  UNL1        0.0290
      9 H           1.3611   -0.7135    1.3128 H       1  UNL1        0.0425
     10 H           2.1409   -1.1728   -0.2013 H       1  UNL1        0.0425
     11 H          -2.1454   -1.1709   -0.1939 H       1  UNL1        0.0425
     12 H          -1.3624   -0.7080    1.3127 H       1  UNL1        0.0425
     13 H          -0.0037    1.4335    1.3390 H       1  UNL1        0.0591
     14 H          -0.0026    2.4011   -0.1263 H       1  UNL1        0.0591
     15 H           2.0345    1.2063    0.1192 H       1  UNL1        0.1231
     16 H          -1.2101    0.7245   -1.2569 H       1  UNL1        0.1231
@<TRIPOS>BOND
     1     1     4    1
     2     1     6    1
     3     1    15    1
     4     2     5    1
     5     2     6    1
     6     2    16    1
     7     3     4    1
     8     3     5    1
     9     3     7    1
    10     3     8    1
    11     4     9    1
    12     4    10    1
    13     5    11    1
    14     5    12    1
    15     6    13    1
    16     6    14    1
