@<TRIPOS>MOLECULE
68163
 19 19 0 0 0
SMALL
GASTEIGER

@<TRIPOS>ATOM
      1 N          -1.6499   -0.1971    0.1437 N.3     1  UNL1       -0.3147
      2 N           1.2905    0.8595   -0.3807 N.3     1  UNL1       -0.3147
      3 C           0.4781   -1.4446    0.3999 C.3     1  UNL1       -0.0278
      4 C          -0.8250   -1.2850   -0.3792 C.3     1  UNL1       -0.0029
      5 C           1.6172   -0.5209   -0.0401 C.3     1  UNL1       -0.0029
      6 C          -1.1430    1.1361   -0.1670 C.3     1  UNL1        0.0084
      7 C           0.2321    1.4521    0.4234 C.3     1  UNL1        0.0084
      8 H           0.2868   -1.3108    1.4730 H       1  UNL1        0.0290
      9 H           0.8262   -2.4798    0.2896 H       1  UNL1        0.0290
     10 H          -0.6454   -1.1754   -1.4552 H       1  UNL1        0.0424
     11 H          -1.4012   -2.2096   -0.2532 H       1  UNL1        0.0424
     12 H           2.3756   -0.5212    0.7529 H       1  UNL1        0.0424
     13 H           2.1018   -0.9622   -0.9192 H       1  UNL1        0.0424
     14 H          -1.8567    1.8557    0.2525 H       1  UNL1        0.0436
     15 H          -1.1502    1.3034   -1.2518 H       1  UNL1        0.0436
     16 H           0.3598    2.5410    0.3786 H       1  UNL1        0.0436
     17 H           0.3070    1.1850    1.4843 H       1  UNL1        0.0436
     18 H          -2.5892   -0.2833   -0.2454 H       1  UNL1        0.1220
     19 H           2.1375    1.4230   -0.3103 H       1  UNL1        0.1220
@<TRIPOS>BOND
     1     1     4    1
     2     1     6    1
     3     1    18    1
     4     2     5    1
     5     2     7    1
     6     2    19    1
     7     3     4    1
     8     3     5    1
     9     3     8    1
    10     3     9    1
    11     4    10    1
    12     4    11    1
    13     5    12    1
    14     5    13    1
    15     6     7    1
    16     6    14    1
    17     6    15    1
    18     7    16    1
    19     7    17    1
