@<TRIPOS>MOLECULE
8119
 20 20 0 0 0
SMALL
GASTEIGER

@<TRIPOS>ATOM
      1 N           1.1100    1.0261    0.4215 N.3     1  UNL1       -0.3160
      2 C          -1.6341   -0.4727   -0.1121 C.3     1  UNL1       -0.0519
      3 C          -0.5655   -1.4438    0.3865 C.3     1  UNL1       -0.0519
      4 C          -1.3323    1.0055    0.1205 C.3     1  UNL1       -0.0404
      5 C           0.7232   -1.3545   -0.4262 C.3     1  UNL1       -0.0404
      6 C           0.0133    1.4936   -0.4149 C.3     1  UNL1       -0.0041
      7 C           1.6855   -0.2542    0.0247 C.3     1  UNL1       -0.0041
      8 H          -1.8055   -0.6393   -1.1832 H       1  UNL1        0.0266
      9 H          -2.5815   -0.7106    0.3875 H       1  UNL1        0.0266
     10 H          -0.3706   -1.2965    1.4549 H       1  UNL1        0.0266
     11 H          -0.9663   -2.4594    0.2775 H       1  UNL1        0.0266
     12 H          -2.1279    1.5927   -0.3553 H       1  UNL1        0.0277
     13 H          -1.4010    1.2224    1.1948 H       1  UNL1        0.0277
     14 H           1.2539   -2.3119   -0.3472 H       1  UNL1        0.0277
     15 H           0.4856   -1.2286   -1.4899 H       1  UNL1        0.0277
     16 H           0.1533    1.2424   -1.4727 H       1  UNL1        0.0424
     17 H           0.0044    2.5893   -0.3616 H       1  UNL1        0.0424
     18 H           2.2608   -0.6266    0.8808 H       1  UNL1        0.0424
     19 H           2.4140   -0.0874   -0.7784 H       1  UNL1        0.0424
     20 H           1.8534    1.7242    0.4357 H       1  UNL1        0.1219
@<TRIPOS>BOND
     1     1     6    1
     2     1     7    1
     3     1    20    1
     4     2     3    1
     5     2     4    1
     6     2     8    1
     7     2     9    1
     8     3     5    1
     9     3    10    1
    10     3    11    1
    11     4     6    1
    12     4    12    1
    13     4    13    1
    14     5     7    1
    15     5    14    1
    16     5    15    1
    17     6    16    1
    18     6    17    1
    19     7    18    1
    20     7    19    1
