@<TRIPOS>MOLECULE
8453
 12 12 0 0 0
SMALL
GASTEIGER

@<TRIPOS>ATOM
      1 O          -2.0395    0.0000    0.0000 O.2     1  UNL1       -0.2529
      2 N           0.0183    1.1266    0.0280 N.am    1  UNL1       -0.2979
      3 N           0.0184   -1.1265   -0.0277 N.am    1  UNL1       -0.2979
      4 C           1.4095    0.7591   -0.0414 C.3     1  UNL1        0.0287
      5 C           1.4096   -0.7591    0.0413 C.3     1  UNL1        0.0287
      6 C          -0.8162   -0.0001   -0.0001 C.2     1  UNL1        0.2997
      7 H           1.9549    1.2270    0.7824 H       1  UNL1        0.0478
      8 H           1.8130    1.1173   -0.9931 H       1  UNL1        0.0478
      9 H           1.9548   -1.2269   -0.7828 H       1  UNL1        0.0478
     10 H           1.8134   -1.1174    0.9929 H       1  UNL1        0.0478
     11 H          -0.3224    2.0826    0.0434 H       1  UNL1        0.1503
     12 H          -0.3223   -2.0826   -0.0430 H       1  UNL1        0.1503
@<TRIPOS>BOND
     1     1     6    2
     2     2     4    1
     3     2     6   am
     4     2    11    1
     5     3     5    1
     6     3     6   am
     7     3    12    1
     8     4     5    1
     9     4     7    1
    10     4     8    1
    11     5     9    1
    12     5    10    1
