@<TRIPOS>MOLECULE
449488
 13 13 0 0 0
SMALL
GASTEIGER

@<TRIPOS>ATOM
      1 N          -1.1749   -0.3641   -0.1466 N.3     1  UNL1       -0.3026
      2 N           1.1773   -0.3585    0.1440 N.3     1  UNL1       -0.3026
      3 C          -0.7208    0.9689    0.2385 C.3     1  UNL1        0.0096
      4 C           0.7154    0.9731   -0.2374 C.3     1  UNL1        0.0096
      5 C           0.0029   -1.2194    0.0015 C.3     1  UNL1        0.0468
      6 H          -0.7789    1.0946    1.3266 H       1  UNL1        0.0437
      7 H          -1.3188    1.7489   -0.2407 H       1  UNL1        0.0437
      8 H           0.7727    1.1017   -1.3252 H       1  UNL1        0.0437
      9 H           1.3094    1.7552    0.2434 H       1  UNL1        0.0437
     10 H          -0.0883   -1.8576    0.8864 H       1  UNL1        0.0591
     11 H           0.0967   -1.8635   -0.8789 H       1  UNL1        0.0591
     12 H          -1.9322   -0.6763    0.4586 H       1  UNL1        0.1232
     13 H           1.9328   -0.6664   -0.4655 H       1  UNL1        0.1232
@<TRIPOS>BOND
     1     1     3    1
     2     1     5    1
     3     1    12    1
     4     2     4    1
     5     2     5    1
     6     2    13    1
     7     3     4    1
     8     3     6    1
     9     3     7    1
    10     4     8    1
    11     4     9    1
    12     5    10    1
    13     5    11    1
