@<TRIPOS>MOLECULE
8083
 15 15 0 0 0
SMALL
GASTEIGER

@<TRIPOS>ATOM
      1 O           1.3896   -0.0002    0.2446 O.3     1  UNL1       -0.3773
      2 N          -1.4263    0.0003   -0.2314 N.3     1  UNL1       -0.3116
      3 C          -0.7170    1.1989    0.2272 C.3     1  UNL1        0.0194
      4 C          -0.7175   -1.1987    0.2272 C.3     1  UNL1        0.0194
      5 C           0.7358    1.1767   -0.2338 C.3     1  UNL1        0.0602
      6 C           0.7354   -1.1770   -0.2338 C.3     1  UNL1        0.0602
      7 H          -0.7619    1.2491    1.3219 H       1  UNL1        0.0446
      8 H          -1.2172    2.0891   -0.1673 H       1  UNL1        0.0446
      9 H          -1.2180   -2.0888   -0.1675 H       1  UNL1        0.0446
     10 H          -0.7625   -1.2490    1.3219 H       1  UNL1        0.0446
     11 H           0.8138    1.2186   -1.3269 H       1  UNL1        0.0572
     12 H           1.2698    2.0423    0.1707 H       1  UNL1        0.0572
     13 H           1.2692   -2.0428    0.1707 H       1  UNL1        0.0572
     14 H           0.8134   -1.2189   -1.3269 H       1  UNL1        0.0572
     15 H          -2.3736    0.0004    0.1453 H       1  UNL1        0.1221
@<TRIPOS>BOND
     1     1     5    1
     2     1     6    1
     3     2     3    1
     4     2     4    1
     5     2    15    1
     6     3     5    1
     7     3     7    1
     8     3     8    1
     9     4     6    1
    10     4     9    1
    11     4    10    1
    12     5    11    1
    13     5    12    1
    14     6    13    1
    15     6    14    1
