@<TRIPOS>MOLECULE
231360
 15 15 0 0 0
SMALL
GASTEIGER

@<TRIPOS>ATOM
      1 O          -2.2915   -0.0030   -0.0199 O.2     1  UNL1       -0.2744
      2 N           1.0881   -1.1560   -0.3375 N.3     1  UNL1       -0.3067
      3 N          -0.3398    1.1902    0.0007 N.am    1  UNL1       -0.3130
      4 C           1.7760   -0.0344    0.2944 C.3     1  UNL1        0.0119
      5 C           1.1014    1.2570   -0.1261 C.3     1  UNL1        0.0242
      6 C          -0.2747   -1.2694    0.1754 C.3     1  UNL1        0.0733
      7 C          -1.0595    0.0156    0.0130 C.2     1  UNL1        0.2269
      8 H           2.8256   -0.0183   -0.0183 H       1  UNL1        0.0439
      9 H           1.7649   -0.1448    1.3858 H       1  UNL1        0.0439
     10 H           1.4534    2.0989    0.4780 H       1  UNL1        0.0474
     11 H           1.3145    1.4817   -1.1773 H       1  UNL1        0.0474
     12 H          -0.2718   -1.5413    1.2371 H       1  UNL1        0.0520
     13 H          -0.7943   -2.0582   -0.3784 H       1  UNL1        0.0520
     14 H           1.5920   -2.0191   -0.1349 H       1  UNL1        0.1224
     15 H          -0.8590    2.0603   -0.0659 H       1  UNL1        0.1488
@<TRIPOS>BOND
     1     1     7    2
     2     2     4    1
     3     2     6    1
     4     2    14    1
     5     3     5    1
     6     3     7   am
     7     3    15    1
     8     4     5    1
     9     4     8    1
    10     4     9    1
    11     5    10    1
    12     5    11    1
    13     6     7    1
    14     6    12    1
    15     6    13    1
