@<TRIPOS>MOLECULE
4837
 16 16 0 0 0
SMALL
GASTEIGER

@<TRIPOS>ATOM
      1 N           1.4274    0.0012    0.2288 N.3     1  UNL1       -0.3136
      2 N          -1.4330   -0.0013   -0.2312 N.3     1  UNL1       -0.3136
      3 C          -0.7301    1.2004    0.2258 C.3     1  UNL1        0.0085
      4 C           0.7306    1.2050   -0.2245 C.3     1  UNL1        0.0085
      5 C          -0.7278   -1.2016    0.2259 C.3     1  UNL1        0.0085
      6 C           0.7328   -1.2036   -0.2246 C.3     1  UNL1        0.0085
      7 H          -0.7906    1.2746    1.3190 H       1  UNL1        0.0436
      8 H          -1.2360    2.0818   -0.1832 H       1  UNL1        0.0436
      9 H          -1.2322   -2.0840   -0.1828 H       1  UNL1        0.0436
     10 H          -0.7881   -1.2758    1.3191 H       1  UNL1        0.0436
     11 H           0.7914    1.2835   -1.3173 H       1  UNL1        0.0436
     12 H           1.2345    2.0849    0.1899 H       1  UNL1        0.0436
     13 H           1.2382   -2.0828    0.1896 H       1  UNL1        0.0436
     14 H           0.7936   -1.2820   -1.3174 H       1  UNL1        0.0436
     15 H           2.3806    0.0021   -0.1327 H       1  UNL1        0.1220
     16 H          -2.3829   -0.0022    0.1389 H       1  UNL1        0.1220
@<TRIPOS>BOND
     1     1     4    1
     2     1     6    1
     3     1    15    1
     4     2     3    1
     5     2     5    1
     6     2    16    1
     7     3     4    1
     8     3     7    1
     9     3     8    1
    10     4    11    1
    11     4    12    1
    12     5     6    1
    13     5     9    1
    14     5    10    1
    15     6    13    1
    16     6    14    1
