@<TRIPOS>MOLECULE
8082
 17 17 0 0 0
SMALL
GASTEIGER

@<TRIPOS>ATOM
      1 N           1.4148    0.0019    0.2432 N.3     1  UNL1       -0.3160
      2 C          -1.4683   -0.0020   -0.2153 C.3     1  UNL1       -0.0508
      3 C          -0.7175    1.2528    0.2192 C.3     1  UNL1       -0.0404
      4 C          -0.7139   -1.2547    0.2194 C.3     1  UNL1       -0.0404
      5 C           0.7408    1.2104   -0.2331 C.3     1  UNL1       -0.0041
      6 C           0.7441   -1.2084   -0.2334 C.3     1  UNL1       -0.0041
      7 H          -2.4775   -0.0034    0.2107 H       1  UNL1        0.0266
      8 H          -1.5785   -0.0023   -1.3067 H       1  UNL1        0.0266
      9 H          -1.2090    2.1403   -0.1951 H       1  UNL1        0.0277
     10 H          -0.7609    1.3435    1.3120 H       1  UNL1        0.0277
     11 H          -0.7569   -1.3452    1.3122 H       1  UNL1        0.0277
     12 H          -1.2031   -2.1436   -0.1944 H       1  UNL1        0.0277
     13 H           0.8004    1.2682   -1.3268 H       1  UNL1        0.0424
     14 H           1.2647    2.0872    0.1628 H       1  UNL1        0.0424
     15 H           1.2704   -2.0838    0.1622 H       1  UNL1        0.0424
     16 H           0.8036   -1.2657   -1.3271 H       1  UNL1        0.0424
     17 H           2.3798    0.0032   -0.0860 H       1  UNL1        0.1219
@<TRIPOS>BOND
     1     1     5    1
     2     1     6    1
     3     1    17    1
     4     2     3    1
     5     2     4    1
     6     2     7    1
     7     2     8    1
     8     3     5    1
     9     3     9    1
    10     3    10    1
    11     4     6    1
    12     4    11    1
    13     4    12    1
    14     5    13    1
    15     5    14    1
    16     6    15    1
    17     6    16    1
