@<TRIPOS>MOLECULE
12665
 16 16 0 0 0
SMALL
GASTEIGER

@<TRIPOS>ATOM
      1 O           2.3133   -0.0013    0.0090 O.2     1  UNL1       -0.2758
      2 N           0.3517   -1.1794   -0.0053 N.am    1  UNL1       -0.3153
      3 C          -1.8141   -0.0197   -0.3080 C.3     1  UNL1       -0.0370
      4 C          -1.1462    1.1980    0.3093 C.3     1  UNL1       -0.0434
      5 C          -1.0876   -1.2691    0.1532 C.3     1  UNL1        0.0116
      6 C           0.3017    1.2825   -0.1470 C.3     1  UNL1        0.0240
      7 C           1.0811   -0.0110   -0.0112 C.2     1  UNL1        0.2130
      8 H          -2.8684   -0.0688   -0.0157 H       1  UNL1        0.0280
      9 H          -1.7800    0.0535   -1.4019 H       1  UNL1        0.0280
     10 H          -1.1893    1.1308    1.4033 H       1  UNL1        0.0270
     11 H          -1.6804    2.1093    0.0190 H       1  UNL1        0.0270
     12 H          -1.2765   -1.4521    1.2169 H       1  UNL1        0.0462
     13 H          -1.4307   -2.1466   -0.4039 H       1  UNL1        0.0462
     14 H           0.8189    2.0588    0.4277 H       1  UNL1        0.0358
     15 H           0.3400    1.5699   -1.2047 H       1  UNL1        0.0358
     16 H           0.8745   -2.0486    0.0425 H       1  UNL1        0.1487
@<TRIPOS>BOND
     1     1     7    2
     2     2     5    1
     3     2     7   am
     4     2    16    1
     5     3     4    1
     6     3     5    1
     7     3     8    1
     8     3     9    1
     9     4     6    1
    10     4    10    1
    11     4    11    1
    12     5    12    1
    13     5    13    1
    14     6     7    1
    15     6    14    1
    16     6    15    1
