@<TRIPOS>MOLECULE
68161
 15 15 0 0 0
SMALL
GASTEIGER

@<TRIPOS>ATOM
      1 N          -1.4242   -0.0954    0.0191 N.2     1  UNL1       -0.2958
      2 C           1.4460    0.0795    0.2805 C.3     1  UNL1       -0.0466
      3 C           0.6635    1.2203   -0.3427 C.3     1  UNL1       -0.0331
      4 C           0.7892   -1.2387   -0.0741 C.3     1  UNL1       -0.0177
      5 C          -0.7617    1.1983    0.1872 C.3     1  UNL1        0.0393
      6 C          -0.7129   -1.1639   -0.0701 C.2     1  UNL1       -0.0003
      7 H           1.4685    0.2011    1.3705 H       1  UNL1        0.0269
      8 H           2.4853    0.0888   -0.0654 H       1  UNL1        0.0269
      9 H           1.1358    2.1791   -0.1027 H       1  UNL1        0.0283
     10 H           0.6616    1.1207   -1.4350 H       1  UNL1        0.0283
     11 H           1.1032   -2.0266    0.6181 H       1  UNL1        0.0322
     12 H           1.0882   -1.5562   -1.0798 H       1  UNL1        0.0322
     13 H          -0.7768    1.4660    1.2503 H       1  UNL1        0.0508
     14 H          -1.3477    1.9593   -0.3398 H       1  UNL1        0.0508
     15 H          -1.2420   -2.1237   -0.1944 H       1  UNL1        0.0778
@<TRIPOS>BOND
     1     1     5    1
     2     1     6    2
     3     2     3    1
     4     2     4    1
     5     2     7    1
     6     2     8    1
     7     3     5    1
     8     3     9    1
     9     3    10    1
    10     4     6    1
    11     4    11    1
    12     4    12    1
    13     5    13    1
    14     5    14    1
    15     6    15    1
