@<TRIPOS>MOLECULE
79033
 13 13 0 0 0
SMALL
GASTEIGER

@<TRIPOS>ATOM
      1 N           0.6750    0.9697   -0.2415 N.3     1  UNL1       -0.2566
      2 N          -0.6712    0.9725    0.2413 N.3     1  UNL1       -0.2566
      3 C          -0.0024   -1.2661   -0.0003 C.3     1  UNL1       -0.0252
      4 C           1.1929   -0.3403    0.1364 C.3     1  UNL1        0.0119
      5 C          -1.1943   -0.3358   -0.1359 C.3     1  UNL1        0.0119
      6 H           0.0871   -1.9062   -0.8848 H       1  UNL1        0.0291
      7 H          -0.0943   -1.9070    0.8834 H       1  UNL1        0.0291
      8 H           1.5506   -0.3289    1.1732 H       1  UNL1        0.0438
      9 H           2.0234   -0.6437   -0.5078 H       1  UNL1        0.0438
     10 H          -1.5531   -0.3233   -1.1723 H       1  UNL1        0.0438
     11 H          -2.0254   -0.6358    0.5092 H       1  UNL1        0.0438
     12 H           1.2127    1.7077    0.2100 H       1  UNL1        0.1405
     13 H          -1.2059    1.7124   -0.2106 H       1  UNL1        0.1405
@<TRIPOS>BOND
     1     1     2    1
     2     1     4    1
     3     1    12    1
     4     2     5    1
     5     2    13    1
     6     3     4    1
     7     3     5    1
     8     3     6    1
     9     3     7    1
    10     4     8    1
    11     4     9    1
    12     5    10    1
    13     5    11    1
