@<TRIPOS>MOLECULE
31268
 14 14 0 0 0
SMALL
GASTEIGER

@<TRIPOS>ATOM
      1 N           1.1902    0.0223    0.2549 N.3     1  UNL1       -0.3160
      2 C          -1.0324    0.7434    0.0699 C.3     1  UNL1       -0.0393
      3 C          -1.0051   -0.7806    0.0655 C.3     1  UNL1       -0.0393
      4 C           0.4021    1.1654   -0.1967 C.3     1  UNL1       -0.0041
      5 C           0.4452   -1.1506   -0.1936 C.3     1  UNL1       -0.0041
      6 H          -1.7158    1.1397   -0.6879 H       1  UNL1        0.0278
      7 H          -1.3692    1.1052    1.0485 H       1  UNL1        0.0278
      8 H          -1.3365   -1.1602    1.0391 H       1  UNL1        0.0278
      9 H          -1.6682   -1.1959   -0.7001 H       1  UNL1        0.0278
     10 H           0.5593    1.3366   -1.2682 H       1  UNL1        0.0424
     11 H           0.6685    2.0796    0.3413 H       1  UNL1        0.0424
     12 H           0.7430   -2.0519    0.3496 H       1  UNL1        0.0424
     13 H           0.6125   -1.3211   -1.2638 H       1  UNL1        0.0424
     14 H           2.1214    0.0391   -0.1571 H       1  UNL1        0.1219
@<TRIPOS>BOND
     1     1     4    1
     2     1     5    1
     3     1    14    1
     4     2     3    1
     5     2     4    1
     6     2     6    1
     7     2     7    1
     8     3     5    1
     9     3     8    1
    10     3     9    1
    11     4    10    1
    12     4    11    1
    13     5    12    1
    14     5    13    1
