@<TRIPOS>MOLECULE
12025
 13 13 0 0 0
SMALL
GASTEIGER

@<TRIPOS>ATOM
      1 O          -2.0479    0.0086    0.0625 O.2     1  UNL1       -0.2758
      2 N           0.0135    1.1205    0.0322 N.am    1  UNL1       -0.3153
      3 C           1.4242   -0.7051    0.2246 C.3     1  UNL1       -0.0291
      4 C           1.3956    0.7667   -0.1327 C.3     1  UNL1        0.0120
      5 C           0.0430   -1.2047   -0.1854 C.3     1  UNL1        0.0254
      6 C          -0.8284    0.0139   -0.0012 C.2     1  UNL1        0.2131
      7 H           1.5469   -0.8220    1.3087 H       1  UNL1        0.0285
      8 H           2.2376   -1.2469   -0.2660 H       1  UNL1        0.0285
      9 H           2.0209    1.3780    0.5225 H       1  UNL1        0.0462
     10 H           1.6694    0.9414   -1.1777 H       1  UNL1        0.0462
     11 H          -0.2956   -2.0299    0.4455 H       1  UNL1        0.0359
     12 H           0.0193   -1.4998   -1.2390 H       1  UNL1        0.0359
     13 H          -0.3215    2.0758    0.1075 H       1  UNL1        0.1487
@<TRIPOS>BOND
     1     1     6    2
     2     2     4    1
     3     2     6   am
     4     2    13    1
     5     3     4    1
     6     3     5    1
     7     3     7    1
     8     3     8    1
     9     4     9    1
    10     4    10    1
    11     5     6    1
    12     5    11    1
    13     5    12    1
