@<TRIPOS>MOLECULE
94395
 12 12 0 0 0
SMALL
GASTEIGER

@<TRIPOS>ATOM
      1 N          -0.1468    1.1662    0.0002 N.pl3   1  UNL1       -0.3495
      2 C          -1.2585    0.2395   -0.0002 C.3     1  UNL1        0.0121
      3 C          -0.5578   -1.1405    0.0002 C.3     1  UNL1       -0.0178
      4 C           0.9087   -0.7966   -0.0001 C.2     1  UNL1       -0.0690
      5 C           1.0544    0.5314    0.0000 C.2     1  UNL1       -0.0145
      6 H          -1.8790    0.3701   -0.8925 H       1  UNL1        0.0464
      7 H          -1.8797    0.3702    0.8915 H       1  UNL1        0.0464
      8 H          -0.8265   -1.7186   -0.8895 H       1  UNL1        0.0323
      9 H          -0.8263   -1.7180    0.8903 H       1  UNL1        0.0323
     10 H          -0.2325    2.1731    0.0019 H       1  UNL1        0.1455
     11 H           1.7126   -1.5164   -0.0001 H       1  UNL1        0.0585
     12 H           1.9668    1.1051    0.0001 H       1  UNL1        0.0775
@<TRIPOS>BOND
     1     1     2    1
     2     1     5    1
     3     1    10    1
     4     2     3    1
     5     2     6    1
     6     2     7    1
     7     3     4    1
     8     3     8    1
     9     3     9    1
    10     4     5    2
    11     4    11    1
    12     5    12    1
