@<TRIPOS>MOLECULE
637986
 24 25 0 0 0
SMALL
GASTEIGER

@<TRIPOS>ATOM
      1 N           0.8062    0.0003   -0.8017 N.3     1  UNL1       -0.2995
      2 C           0.2651   -1.1513   -0.0563 C.3     1  UNL1        0.0105
      3 C           0.2653    1.1514   -0.0554 C.3     1  UNL1        0.0105
      4 C           0.4272   -0.7658    1.4182 C.3     1  UNL1       -0.0359
      5 C           0.4278    0.7646    1.4187 C.3     1  UNL1       -0.0359
      6 C          -1.2192   -1.2722   -0.4562 C.3     1  UNL1       -0.0373
      7 C          -1.2189    1.2726   -0.4556 C.3     1  UNL1       -0.0373
      8 C          -2.0194    0.0002   -0.1503 C.3     1  UNL1       -0.0502
      9 C           2.2659    0.0001   -0.8614 C.3     1  UNL1       -0.0122
     10 H           0.7757   -2.0911   -0.2952 H       1  UNL1        0.0462
     11 H           0.7760    2.0912   -0.2937 H       1  UNL1        0.0462
     12 H           1.3835   -1.1313    1.8108 H       1  UNL1        0.0281
     13 H          -0.3664   -1.1734    2.0528 H       1  UNL1        0.0281
     14 H          -0.3655    1.1724    2.0538 H       1  UNL1        0.0281
     15 H           1.3844    1.1293    1.8113 H       1  UNL1        0.0281
     16 H          -1.6801   -2.1231    0.0591 H       1  UNL1        0.0280
     17 H          -1.2848   -1.4836   -1.5317 H       1  UNL1        0.0280
     18 H          -1.2844    1.4846   -1.5309 H       1  UNL1        0.0280
     19 H          -1.6798    2.1234    0.0601 H       1  UNL1        0.0280
     20 H          -2.9603    0.0004   -0.7120 H       1  UNL1        0.0266
     21 H          -2.2987    0.0000    0.9106 H       1  UNL1        0.0266
     22 H           2.6184    0.8789   -1.4125 H       1  UNL1        0.0391
     23 H           2.6182   -0.8782   -1.4133 H       1  UNL1        0.0391
     24 H           2.7510   -0.0004    0.1199 H       1  UNL1        0.0391
@<TRIPOS>BOND
     1     1     2    1
     2     1     3    1
     3     1     9    1
     4     2     4    1
     5     2     6    1
     6     2    10    1
     7     3     5    1
     8     3     7    1
     9     3    11    1
    10     4     5    1
    11     4    12    1
    12     4    13    1
    13     5    14    1
    14     5    15    1
    15     6     8    1
    16     6    16    1
    17     6    17    1
    18     7     8    1
    19     7    18    1
    20     7    19    1
    21     8    20    1
    22     8    21    1
    23     9    22    1
    24     9    23    1
    25     9    24    1
