@<TRIPOS>MOLECULE
alpha_cyclodextrin
 126 132 0 0 0
SMALL
GASTEIGER

@<TRIPOS>ATOM
      1 O           2.6215   -3.1279   -0.4596 O.3     1  UNL1       -0.3401
      2 O          -1.6785   -3.6756   -0.4077 O.3     1  UNL1       -0.3401
      3 O           4.4118    0.6174   -0.4584 O.3     1  UNL1       -0.3401
      4 O          -4.4018   -0.5559   -0.4614 O.3     1  UNL1       -0.3401
      5 O           1.7223    3.6384   -0.2400 O.3     1  UNL1       -0.3401
      6 O          -2.7169    3.0407   -0.5957 O.3     1  UNL1       -0.3401
      7 O           4.4598   -2.8025   -1.8637 O.3     1  UNL1       -0.3405
      8 O          -0.3375   -4.8280   -1.9183 O.3     1  UNL1       -0.3405
      9 O           4.8393    2.4157   -1.8664 O.3     1  UNL1       -0.3405
     10 O          -5.0268   -2.5157   -1.5416 O.3     1  UNL1       -0.3405
     11 O           0.3320    4.8419   -1.6993 O.3     1  UNL1       -0.3405
     12 O          -4.5027    2.7522   -2.0697 O.3     1  UNL1       -0.3405
     13 O           1.9432   -4.9578    1.5668 O.3     1  UNL1       -0.3864
     14 O           5.5923   -0.8710    1.6510 O.3     1  UNL1       -0.3864
     15 O          -3.1922   -3.7953    1.9810 O.3     1  UNL1       -0.3864
     16 O           3.7186    4.1156    1.7679 O.3     1  UNL1       -0.3864
     17 O          -5.7896    1.0527    1.5048 O.3     1  UNL1       -0.3864
     18 O          -2.0901    4.5451    1.6871 O.3     1  UNL1       -0.3864
     19 O           4.4903   -3.6025    1.7472 O.3     1  UNL1       -0.3841
     20 O          -0.9349   -5.5573    1.6633 O.3     1  UNL1       -0.3841
     21 O           5.8375    2.0718    1.6579 O.3     1  UNL1       -0.3841
     22 O          -5.2879   -1.7703    2.0770 O.3     1  UNL1       -0.3841
     23 O           0.7528    5.1541    1.9804 O.3     1  UNL1       -0.3841
     24 O          -4.7268    3.7815    1.4633 O.3     1  UNL1       -0.3841
     25 O           0.4825   -3.4392   -4.1942 O.3     1  UNL1       -0.3924
     26 O           4.1416   -1.4011   -4.2760 O.3     1  UNL1       -0.3924
     27 O          -3.9891   -3.1491   -4.0621 O.3     1  UNL1       -0.3924
     28 O           3.3945    2.8473   -4.2135 O.3     1  UNL1       -0.3924
     29 O          -4.2878    1.2165   -4.4179 O.3     1  UNL1       -0.3924
     30 O          -0.3982    3.5483   -4.1333 O.3     1  UNL1       -0.3924
     31 C           1.7035   -4.2036   -0.6947 C.3     1  UNL1        0.1184
     32 C          -3.1103   -3.6224   -0.4022 C.3     1  UNL1        0.1184
     33 C           4.9452   -0.6964   -0.6464 C.3     1  UNL1        0.1184
     34 C          -5.0172    0.7073   -0.7346 C.3     1  UNL1        0.1184
     35 C           3.1374    3.6429   -0.5154 C.3     1  UNL1        0.1184
     36 C          -1.7439    4.0927   -0.6444 C.3     1  UNL1        0.1184
     37 C           0.9681   -4.4486    0.6298 C.3     1  UNL1        0.1144
     38 C           4.6813   -1.4299    0.6759 C.3     1  UNL1        0.1144
     39 C          -3.4952   -2.8939    0.8921 C.3     1  UNL1        0.1144
     40 C           3.8127    3.0920    0.7537 C.3     1  UNL1        0.1144
     41 C          -4.8328    1.5409    0.5397 C.3     1  UNL1        0.1144
     42 C          -1.0724    4.1565    0.7342 C.3     1  UNL1        0.1144
     43 C           3.9981   -3.4367   -0.6685 C.3     1  UNL1        0.1884
     44 C          -1.1064   -4.9396   -0.7196 C.3     1  UNL1        0.1884
     45 C           5.2860    1.7076   -0.7124 C.3     1  UNL1        0.1884
     46 C          -5.2639   -1.6838   -0.4016 C.3     1  UNL1        0.1884
     47 C           1.0493    4.8739   -0.4610 C.3     1  UNL1        0.1884
     48 C          -4.0570    3.4278   -0.8909 C.3     1  UNL1        0.1884
     49 C           4.8384   -2.9449    0.5243 C.3     1  UNL1        0.1341
     50 C           5.2640    2.6659    0.4893 C.3     1  UNL1        0.1341
     51 C          -4.9875    3.0387    0.2700 C.3     1  UNL1        0.1341
     52 C          -4.9714   -2.4858    0.8789 C.3     1  UNL1        0.1341
     53 C           0.0890    5.1584    0.7134 C.3     1  UNL1        0.1341
     54 C          -0.2098   -5.4136    0.4384 C.3     1  UNL1        0.1341
     55 C           0.7106   -3.8408   -1.8107 C.3     1  UNL1        0.1134
     56 C           4.2506   -1.3732   -1.8402 C.3     1  UNL1        0.1134
     57 C           3.4509    2.8064   -1.7747 C.3     1  UNL1        0.1134
     58 C          -4.3402    1.3205   -1.9748 C.3     1  UNL1        0.1134
     59 C          -0.6917    3.8225   -1.7248 C.3     1  UNL1        0.1134
     60 C          -3.6352   -2.9040   -1.6633 C.3     1  UNL1        0.1134
     61 C           1.4138   -3.7908   -3.1787 C.3     1  UNL1        0.0730
     62 C          -3.5410   -3.8226   -2.8923 C.3     1  UNL1        0.0730
     63 C           4.8030   -0.8167   -3.1598 C.3     1  UNL1        0.0730
     64 C           3.1707    3.6235   -3.0414 C.3     1  UNL1        0.0730
     65 C          -1.3470    3.8285   -3.1118 C.3     1  UNL1        0.0730
     66 C          -4.9569    0.7203   -3.2462 C.3     1  UNL1        0.0730
     67 H           2.2283   -5.1290   -0.9630 H       1  UNL1        0.0651
     68 H          -3.5446   -4.6291   -0.3421 H       1  UNL1        0.0651
     69 H           6.0310   -0.6714   -0.8100 H       1  UNL1        0.0651
     70 H          -6.0938    0.5996   -0.9234 H       1  UNL1        0.0651
     71 H           3.5097    4.6660   -0.6586 H       1  UNL1        0.0651
     72 H          -2.2226    5.0666   -0.8283 H       1  UNL1        0.0651
     73 H           0.6181   -3.5023    1.0615 H       1  UNL1        0.0648
     74 H           3.6801   -1.1930    1.0570 H       1  UNL1        0.0648
     75 H          -2.8559   -2.0162    1.0553 H       1  UNL1        0.0648
     76 H           3.2421    2.2477    1.1586 H       1  UNL1        0.0648
     77 H          -3.8536    1.3437    0.9935 H       1  UNL1        0.0648
     78 H          -0.7273    3.1682    1.0510 H       1  UNL1        0.0648
     79 H           4.1530   -4.5164   -0.7764 H       1  UNL1        0.0938
     80 H          -1.8817   -5.6928   -0.8988 H       1  UNL1        0.0938
     81 H           6.3139    1.3732   -0.8894 H       1  UNL1        0.0938
     82 H          -6.3186   -1.3887   -0.4036 H       1  UNL1        0.0938
     83 H           1.7652    5.7005   -0.5097 H       1  UNL1        0.0938
     84 H          -4.1428    4.5044   -1.0730 H       1  UNL1        0.0938
     85 H           5.8951   -3.1754    0.3428 H       1  UNL1        0.0671
     86 H           5.8665    3.5536    0.2636 H       1  UNL1        0.0671
     87 H          -6.0274    3.2517   -0.0048 H       1  UNL1        0.0671
     88 H          -0.3298    6.1660    0.5897 H       1  UNL1        0.0671
     89 H          -5.5895   -3.3920    0.8928 H       1  UNL1        0.0671
     90 H           0.1880   -6.4069    0.1973 H       1  UNL1        0.0671
     91 H           0.2606   -2.8556   -1.6339 H       1  UNL1        0.0647
     92 H           2.8297    1.9020   -1.8104 H       1  UNL1        0.0647
     93 H          -3.2661    1.0968   -1.9873 H       1  UNL1        0.0647
     94 H           3.1709   -1.1773   -1.8242 H       1  UNL1        0.0647
     95 H          -0.2198    2.8406   -1.5804 H       1  UNL1        0.0647
     96 H          -3.0416   -2.0048   -1.8774 H       1  UNL1        0.0647
     97 H           2.2108   -3.0543   -3.1752 H       1  UNL1        0.0584
     98 H           1.8313   -4.7702   -3.4311 H       1  UNL1        0.0584
     99 H          -2.5248   -4.1538   -3.0767 H       1  UNL1        0.0584
    100 H          -4.1813   -4.7040   -2.7614 H       1  UNL1        0.0584
    101 H           2.1430    3.9723   -3.0721 H       1  UNL1        0.0584
    102 H           3.8348    4.4925   -3.0983 H       1  UNL1        0.0584
    103 H          -2.1249    3.0634   -3.1837 H       1  UNL1        0.0584
    104 H          -1.7911    4.8035   -3.3318 H       1  UNL1        0.0584
    105 H          -4.8733   -0.3734   -3.2584 H       1  UNL1        0.0584
    106 H          -6.0131    0.9949   -3.3331 H       1  UNL1        0.0584
    107 H           4.6654    0.2625   -3.2272 H       1  UNL1        0.0584
    108 H           5.8692   -1.0411   -3.2620 H       1  UNL1        0.0584
    109 H           1.6799   -5.8669    1.8058 H       1  UNL1        0.2100
    110 H           6.2413   -1.5616    1.8825 H       1  UNL1        0.2100
    111 H          -4.0110   -3.9053    2.5017 H       1  UNL1        0.2100
    112 H           4.5800    4.5686    1.8225 H       1  UNL1        0.2100
    113 H          -6.3957    1.7891    1.7163 H       1  UNL1        0.2100
    114 H          -1.7483    5.3214    2.1741 H       1  UNL1        0.2100
    115 H           3.5175   -3.7560    1.7506 H       1  UNL1        0.2101
    116 H          -1.4752   -4.7444    1.7978 H       1  UNL1        0.2101
    117 H           5.4641    1.1674    1.7574 H       1  UNL1        0.2101
    118 H          -5.1532   -0.8092    1.9125 H       1  UNL1        0.2101
    119 H           1.4356    4.4471    1.9615 H       1  UNL1        0.2101
    120 H          -3.7525    3.7856    1.6152 H       1  UNL1        0.2101
    121 H          -0.3032   -3.9767   -4.0581 H       1  UNL1        0.2095
    122 H           4.1223   -2.3619   -4.1181 H       1  UNL1        0.2095
    123 H          -4.8183   -2.6899   -3.8229 H       1  UNL1        0.2095
    124 H           4.2320    2.3684   -4.0783 H       1  UNL1        0.2095
    125 H          -4.1910    2.1829   -4.2672 H       1  UNL1        0.2095
    126 H           0.3095    4.2111   -4.0553 H       1  UNL1        0.2095
@<TRIPOS>BOND
     1     1    31    1
     2     1    43    1
     3     2    32    1
     4     2    44    1
     5     3    33    1
     6     3    45    1
     7     4    34    1
     8     4    46    1
     9     5    35    1
    10     5    47    1
    11     6    36    1
    12     6    48    1
    13     7    43    1
    14     7    56    1
    15     8    44    1
    16     8    55    1
    17     9    45    1
    18     9    57    1
    19    10    46    1
    20    10    60    1
    21    11    47    1
    22    11    59    1
    23    12    48    1
    24    12    58    1
    25    37    13    1
    26    13   109    1
    27    38    14    1
    28    14   110    1
    29    39    15    1
    30    15   111    1
    31    40    16    1
    32    16   112    1
    33    41    17    1
    34    17   113    1
    35    42    18    1
    36    18   114    1
    37    49    19    1
    38    19   115    1
    39    54    20    1
    40    20   116    1
    41    50    21    1
    42    21   117    1
    43    52    22    1
    44    22   118    1
    45    53    23    1
    46    23   119    1
    47    51    24    1
    48    24   120    1
    49    25    61    1
    50    25   121    1
    51    26    63    1
    52    26   122    1
    53    27    62    1
    54    27   123    1
    55    28    64    1
    56    28   124    1
    57    29    66    1
    58    29   125    1
    59    30    65    1
    60    30   126    1
    61    31    37    1
    62    31    55    1
    63    31    67    1
    64    32    39    1
    65    32    60    1
    66    32    68    1
    67    33    38    1
    68    33    56    1
    69    33    69    1
    70    34    41    1
    71    34    58    1
    72    34    70    1
    73    35    40    1
    74    35    57    1
    75    35    71    1
    76    36    42    1
    77    36    59    1
    78    36    72    1
    79    37    54    1
    80    37    73    1
    81    38    49    1
    82    38    74    1
    83    39    52    1
    84    39    75    1
    85    40    50    1
    86    40    76    1
    87    41    51    1
    88    41    77    1
    89    42    53    1
    90    42    78    1
    91    43    49    1
    92    43    79    1
    93    44    54    1
    94    44    80    1
    95    45    50    1
    96    45    81    1
    97    46    52    1
    98    46    82    1
    99    47    53    1
   100    47    83    1
   101    48    51    1
   102    48    84    1
   103    49    85    1
   104    50    86    1
   105    51    87    1
   106    52    89    1
   107    53    88    1
   108    54    90    1
   109    55    61    1
   110    55    91    1
   111    56    63    1
   112    56    94    1
   113    57    64    1
   114    57    92    1
   115    58    66    1
   116    58    93    1
   117    59    65    1
   118    59    95    1
   119    60    62    1
   120    60    96    1
   121    61    97    1
   122    61    98    1
   123    62    99    1
   124    62   100    1
   125    63   107    1
   126    63   108    1
   127    64   101    1
   128    64   102    1
   129    65   103    1
   130    65   104    1
   131    66   105    1
   132    66   106    1
