@<TRIPOS>MOLECULE
beta_cyclodextrin
 147 154 0 0 0
SMALL
GASTEIGER

@<TRIPOS>ATOM
      1 O          -4.9271    0.7002    0.2733 O.3     1  UNL1       -0.3401
      2 O          -3.8422   -3.3040    0.5836 O.3     1  UNL1       -0.3401
      3 O          -2.4797    4.3289    0.4865 O.3     1  UNL1       -0.3401
      4 O           0.2980   -4.7168    0.3276 O.3     1  UNL1       -0.3401
      5 O           1.7497    4.5679    0.4754 O.3     1  UNL1       -0.3401
      6 O           4.3510   -2.9176    0.1728 O.3     1  UNL1       -0.3401
      7 O           4.8184    1.3266    0.4253 O.3     1  UNL1       -0.3401
      8 O          -5.6769    2.6537    1.3057 O.3     1  UNL1       -0.3405
      9 O          -5.4530   -2.5066    2.0529 O.3     1  UNL1       -0.3405
     10 O          -1.4038    5.5827    2.1123 O.3     1  UNL1       -0.3405
     11 O          -1.2984   -5.7286    1.6980 O.3     1  UNL1       -0.3405
     12 O           3.6474    4.5550    1.8385 O.3     1  UNL1       -0.3405
     13 O           3.5648   -4.1811    1.9730 O.3     1  UNL1       -0.3405
     14 O           6.2089   -0.0409    1.7024 O.3     1  UNL1       -0.3405
     15 O          -6.3793   -0.8148   -1.6482 O.3     1  UNL1       -0.3864
     16 O          -3.6546    4.1638   -2.0332 O.3     1  UNL1       -0.3864
     17 O          -3.4948   -4.8059   -1.7552 O.3     1  UNL1       -0.3864
     18 O           0.7151    6.5025   -1.3371 O.3     1  UNL1       -0.3864
     19 O           2.0106   -6.2082   -1.3136 O.3     1  UNL1       -0.3864
     20 O           5.1104    3.0263   -1.7762 O.3     1  UNL1       -0.3864
     21 O           5.9823   -2.0625   -1.9448 O.3     1  UNL1       -0.3864
     22 O          -5.4448    1.8599   -2.3245 O.3     1  UNL1       -0.3841
     23 O          -5.9461   -3.6985   -1.4068 O.3     1  UNL1       -0.3841
     24 O          -2.2459    6.5223   -1.3573 O.3     1  UNL1       -0.3841
     25 O          -0.8508   -6.0150   -1.9886 O.3     1  UNL1       -0.3841
     26 O           3.3544    5.3500   -1.7864 O.3     1  UNL1       -0.3841
     27 O           4.8047   -5.3025   -1.3209 O.3     1  UNL1       -0.3841
     28 O           6.5864    0.7847   -1.8814 O.3     1  UNL1       -0.3841
     29 O          -4.6515   -0.9543    4.2475 O.3     1  UNL1       -0.3924
     30 O          -4.7309    3.1665    3.9458 O.3     1  UNL1       -0.3924
     31 O          -1.8486   -4.4506    4.1609 O.3     1  UNL1       -0.3924
     32 O          -0.3042    4.0976    4.2303 O.3     1  UNL1       -0.3924
     33 O           1.9422   -2.7858    3.7952 O.3     1  UNL1       -0.3924
     34 O           3.5800    2.9519    4.1771 O.3     1  UNL1       -0.3924
     35 O           5.3571   -1.1330    4.1148 O.3     1  UNL1       -0.3924
     36 C          -5.6214   -0.5071    0.6167 C.3     1  UNL1        0.1184
     37 C          -3.1522   -4.5457    0.6111 C.3     1  UNL1        0.1184
     38 C          -3.8580    3.9963    0.3493 C.3     1  UNL1        0.1184
     39 C           1.6412   -5.0012    0.7383 C.3     1  UNL1        0.1184
     40 C           0.6762    5.4486    0.8288 C.3     1  UNL1        0.1184
     41 C           5.4568   -2.0296    0.4059 C.3     1  UNL1        0.1184
     42 C           4.7250    2.7467    0.5758 C.3     1  UNL1        0.1184
     43 C          -5.5751   -1.4189   -0.6192 C.3     1  UNL1        0.1144
     44 C          -3.9748    3.2310   -0.9731 C.3     1  UNL1        0.1144
     45 C          -2.4626   -4.6961   -0.7504 C.3     1  UNL1        0.1144
     46 C          -0.1196    5.7207   -0.4591 C.3     1  UNL1        0.1144
     47 C           2.5054   -5.1104   -0.5263 C.3     1  UNL1        0.1144
     48 C           4.1592    3.3161   -0.7308 C.3     1  UNL1        0.1144
     49 C           5.5583   -1.1807   -0.8774 C.3     1  UNL1        0.1144
     50 C          -5.7714    1.8403    0.1294 C.3     1  UNL1        0.1884
     51 C          -5.2238   -3.3461    0.9209 C.3     1  UNL1        0.1884
     52 C          -2.2013    5.6501    0.9364 C.3     1  UNL1        0.1884
     53 C          -0.5771   -5.8381    0.4660 C.3     1  UNL1        0.1884
     54 C           3.0518    5.1116    0.6597 C.3     1  UNL1        0.1884
     55 C           4.4152   -4.1764    0.8276 C.3     1  UNL1        0.1884
     56 C           6.1364    0.7963    0.5500 C.3     1  UNL1        0.1884
     57 C          -5.3773    2.6404   -1.1254 C.3     1  UNL1        0.1341
     58 C          -1.4572    6.4179   -0.1676 C.3     1  UNL1        0.1341
     59 C           3.9170    4.8217   -0.5798 C.3     1  UNL1        0.1341
     60 C           3.9846   -5.2853   -0.1497 C.3     1  UNL1        0.1341
     61 C           6.5287   -0.0124   -0.6972 C.3     1  UNL1        0.1341
     62 C          -1.5363   -5.9132   -0.7395 C.3     1  UNL1        0.1341
     63 C          -6.0469   -2.8366   -0.2719 C.3     1  UNL1        0.1341
     64 C          -0.2107    4.8024    1.9047 C.3     1  UNL1        0.1134
     65 C          -4.9633   -1.1652    1.8415 C.3     1  UNL1        0.1134
     66 C          -2.1244   -4.5455    1.7389 C.3     1  UNL1        0.1134
     67 C           5.2785   -1.1506    1.6673 C.3     1  UNL1        0.1134
     68 C           2.1895   -3.8942    1.6483 C.3     1  UNL1        0.1134
     69 C           3.8103    3.1196    1.7517 C.3     1  UNL1        0.1134
     70 C          -4.3325    3.1349    1.5290 C.3     1  UNL1        0.1134
     71 C           0.5146    4.7140    3.2476 C.3     1  UNL1        0.0730
     72 C          -2.8119   -4.4899    3.1106 C.3     1  UNL1        0.0730
     73 C           1.4168   -3.8179    2.9666 C.3     1  UNL1        0.0730
     74 C           5.5680   -1.9313    2.9598 C.3     1  UNL1        0.0730
     75 C          -5.2800   -0.3684    3.1142 C.3     1  UNL1        0.0730
     76 C           4.4171    2.6302    3.0730 C.3     1  UNL1        0.0730
     77 C          -4.3253    3.9515    2.8315 C.3     1  UNL1        0.0730
     78 H          -6.6758   -0.3100    0.8537 H       1  UNL1        0.0651
     79 H          -3.8500   -5.3975    0.7263 H       1  UNL1        0.0651
     80 H          -4.4772    4.8988    0.2591 H       1  UNL1        0.0651
     81 H           1.6941   -5.9521    1.2827 H       1  UNL1        0.0651
     82 H           1.0474    6.4111    1.2066 H       1  UNL1        0.0651
     83 H           6.3882   -2.6070    0.4768 H       1  UNL1        0.0651
     84 H           5.7119    3.2026    0.7336 H       1  UNL1        0.0651
     85 H          -4.5602   -1.4459   -1.0358 H       1  UNL1        0.0648
     86 H          -3.2138    2.4436   -1.0395 H       1  UNL1        0.0648
     87 H          -1.9051   -3.7873   -1.0047 H       1  UNL1        0.0648
     88 H          -0.2947    4.7834   -1.0009 H       1  UNL1        0.0648
     89 H           2.3741   -4.2220   -1.1571 H       1  UNL1        0.0648
     90 H           3.2377    2.7984   -1.0181 H       1  UNL1        0.0648
     91 H           4.5711   -0.8136   -1.1834 H       1  UNL1        0.0648
     92 H          -6.8190    1.5397    0.0110 H       1  UNL1        0.0938
     93 H          -5.5468   -4.3577    1.1870 H       1  UNL1        0.0938
     94 H          -3.1264    6.1864    1.1918 H       1  UNL1        0.0938
     95 H          -0.0115   -6.7769    0.4883 H       1  UNL1        0.0938
     96 H           3.0124    6.1988    0.7876 H       1  UNL1        0.0938
     97 H           5.4376   -4.3887    1.1575 H       1  UNL1        0.0938
     98 H           6.8779    1.5919    0.6836 H       1  UNL1        0.0938
     99 H          -6.0894    3.4624   -1.2621 H       1  UNL1        0.0671
    100 H          -1.2637    7.4416    0.1728 H       1  UNL1        0.0671
    101 H           4.8859    5.3171   -0.4567 H       1  UNL1        0.0671
    102 H           7.5387   -0.4150   -0.5560 H       1  UNL1        0.0671
    103 H           4.1089   -6.2599    0.3361 H       1  UNL1        0.0671
    104 H          -2.1494   -6.8176   -0.6511 H       1  UNL1        0.0671
    105 H          -7.1082   -2.8080    0.0016 H       1  UNL1        0.0671
    106 H          -0.4862    3.7781    1.6206 H       1  UNL1        0.0647
    107 H          -3.8711   -1.1952    1.7375 H       1  UNL1        0.0647
    108 H          -1.4850   -3.6560    1.6605 H       1  UNL1        0.0647
    109 H           2.1231   -2.9108    1.1673 H       1  UNL1        0.0647
    110 H          -3.6659    2.2755    1.6765 H       1  UNL1        0.0647
    111 H           4.2565   -0.7515    1.7235 H       1  UNL1        0.0647
    112 H           2.8213    2.6554    1.6453 H       1  UNL1        0.0647
    113 H           1.4224    4.1189    3.1649 H       1  UNL1        0.0584
    114 H           0.7842    5.7171    3.6212 H       1  UNL1        0.0584
    115 H          -3.4292   -3.5965    3.2096 H       1  UNL1        0.0584
    116 H          -3.4350   -5.3726    3.2732 H       1  UNL1        0.0584
    117 H           0.3694   -3.5816    2.7910 H       1  UNL1        0.0584
    118 H           1.4798   -4.7591    3.5218 H       1  UNL1        0.0584
    119 H           4.9342   -2.8053    3.0783 H       1  UNL1        0.0584
    120 H           6.6116   -2.2670    2.9811 H       1  UNL1        0.0584
    121 H          -3.3258    4.3196    3.0615 H       1  UNL1        0.0584
    122 H          -5.0085    4.8016    2.7634 H       1  UNL1        0.0584
    123 H           4.5444    1.5466    3.0684 H       1  UNL1        0.0584
    124 H           5.3892    3.0998    3.2551 H       1  UNL1        0.0584
    125 H          -4.9231    0.6565    3.0319 H       1  UNL1        0.0584
    126 H          -6.3576   -0.3553    3.3088 H       1  UNL1        0.0584
    127 H          -7.2639   -1.2219   -1.6241 H       1  UNL1        0.2100
    128 H          -4.4912    4.4472   -2.4465 H       1  UNL1        0.2100
    129 H          -3.5248   -5.7338   -2.0545 H       1  UNL1        0.2100
    130 H           0.5140    7.4453   -1.1939 H       1  UNL1        0.2100
    131 H           2.5763   -6.9835   -1.1508 H       1  UNL1        0.2100
    132 H           5.5465    3.8612   -2.0301 H       1  UNL1        0.2100
    133 H           6.9109   -1.8553   -2.1556 H       1  UNL1        0.2100
    134 H          -5.1900    0.9360   -2.1023 H       1  UNL1        0.2101
    135 H          -4.9905   -3.7957   -1.6308 H       1  UNL1        0.2101
    136 H          -2.4385    5.6067   -1.6669 H       1  UNL1        0.2101
    137 H           0.0214   -5.5719   -1.8933 H       1  UNL1        0.2101
    138 H           2.3790    5.2637   -1.7351 H       1  UNL1        0.2101
    139 H           4.7885   -4.3985   -1.7017 H       1  UNL1        0.2101
    140 H           5.7972    1.3757   -1.8946 H       1  UNL1        0.2101
    141 H          -4.8216   -1.9179    4.1979 H       1  UNL1        0.2095
    142 H          -5.5603    2.7206    3.6871 H       1  UNL1        0.2095
    143 H          -1.2072   -5.1590    3.9728 H       1  UNL1        0.2095
    144 H          -1.1921    4.5078    4.1511 H       1  UNL1        0.2095
    145 H           2.8802   -2.9922    3.9567 H       1  UNL1        0.2095
    146 H           3.3649    3.8983    4.1032 H       1  UNL1        0.2095
    147 H           5.7621   -0.2602    3.9319 H       1  UNL1        0.2095
@<TRIPOS>BOND
     1     1    36    1
     2     1    50    1
     3     2    37    1
     4     2    51    1
     5     3    38    1
     6     3    52    1
     7     4    39    1
     8     4    53    1
     9     5    40    1
    10     5    54    1
    11     6    41    1
    12     6    55    1
    13     7    42    1
    14     7    56    1
    15     8    50    1
    16     8    70    1
    17     9    51    1
    18     9    65    1
    19    10    52    1
    20    10    64    1
    21    11    53    1
    22    11    66    1
    23    12    54    1
    24    12    69    1
    25    13    55    1
    26    13    68    1
    27    14    56    1
    28    14    67    1
    29    43    15    1
    30    15   127    1
    31    44    16    1
    32    16   128    1
    33    45    17    1
    34    17   129    1
    35    46    18    1
    36    18   130    1
    37    47    19    1
    38    19   131    1
    39    48    20    1
    40    20   132    1
    41    49    21    1
    42    21   133    1
    43    57    22    1
    44    22   134    1
    45    63    23    1
    46    23   135    1
    47    58    24    1
    48    24   136    1
    49    62    25    1
    50    25   137    1
    51    59    26    1
    52    26   138    1
    53    60    27    1
    54    27   139    1
    55    61    28    1
    56    28   140    1
    57    29    75    1
    58    29   141    1
    59    30    77    1
    60    30   142    1
    61    31    72    1
    62    31   143    1
    63    32    71    1
    64    32   144    1
    65    33    73    1
    66    33   145    1
    67    34    76    1
    68    34   146    1
    69    35    74    1
    70    35   147    1
    71    36    43    1
    72    36    65    1
    73    36    78    1
    74    37    45    1
    75    37    66    1
    76    37    79    1
    77    38    44    1
    78    38    70    1
    79    38    80    1
    80    39    47    1
    81    39    68    1
    82    39    81    1
    83    40    46    1
    84    40    64    1
    85    40    82    1
    86    41    49    1
    87    41    67    1
    88    41    83    1
    89    42    48    1
    90    42    69    1
    91    42    84    1
    92    43    63    1
    93    43    85    1
    94    44    57    1
    95    44    86    1
    96    45    62    1
    97    45    87    1
    98    46    58    1
    99    46    88    1
   100    47    60    1
   101    47    89    1
   102    48    59    1
   103    48    90    1
   104    49    61    1
   105    49    91    1
   106    50    57    1
   107    50    92    1
   108    51    63    1
   109    51    93    1
   110    52    58    1
   111    52    94    1
   112    53    62    1
   113    53    95    1
   114    54    59    1
   115    54    96    1
   116    55    60    1
   117    55    97    1
   118    56    61    1
   119    56    98    1
   120    57    99    1
   121    58   100    1
   122    59   101    1
   123    60   103    1
   124    61   102    1
   125    62   104    1
   126    63   105    1
   127    64    71    1
   128    64   106    1
   129    65    75    1
   130    65   107    1
   131    66    72    1
   132    66   108    1
   133    67    74    1
   134    67   111    1
   135    68    73    1
   136    68   109    1
   137    69    76    1
   138    69   112    1
   139    70    77    1
   140    70   110    1
   141    71   113    1
   142    71   114    1
   143    72   115    1
   144    72   116    1
   145    73   117    1
   146    73   118    1
   147    74   119    1
   148    74   120    1
   149    75   125    1
   150    75   126    1
   151    76   123    1
   152    76   124    1
   153    77   121    1
   154    77   122    1
