@<TRIPOS>MOLECULE
cellobiose
 45 46 0 0 0
SMALL
GASTEIGER

@<TRIPOS>ATOM
      1 O          -0.1014    0.8340    0.8158 O.3     1  UNL1       -0.3401
      2 O           1.3535   -0.7755   -0.0428 O.3     1  UNL1       -0.3405
      3 O          -3.3893    0.7192   -0.7935 O.3     1  UNL1       -0.3407
      4 O          -0.9150   -1.9196    1.1511 O.3     1  UNL1       -0.3864
      5 O           2.0271    2.6980    0.8690 O.3     1  UNL1       -0.3841
      6 O           4.6430    1.3725    1.1539 O.3     1  UNL1       -0.3864
      7 O           4.9338   -0.7262   -0.8125 O.3     1  UNL1       -0.3865
      8 O          -3.8363   -2.0982    1.4895 O.3     1  UNL1       -0.3841
      9 O          -5.2227   -0.7021   -0.5444 O.3     1  UNL1       -0.3649
     10 O          -2.6752    3.2826   -1.4833 O.3     1  UNL1       -0.3924
     11 O           1.4650   -2.9979   -1.6567 O.3     1  UNL1       -0.3924
     12 C          -1.2099    0.2345    0.1502 C.3     1  UNL1        0.1184
     13 C          -1.8308   -0.8272    1.0581 C.3     1  UNL1        0.1144
     14 C           1.1124    0.6229    0.0953 C.3     1  UNL1        0.1884
     15 C          -2.2346    1.3159   -0.2004 C.3     1  UNL1        0.1134
     16 C           2.2455    1.2874    0.8771 C.3     1  UNL1        0.1341
     17 C           3.6067    0.9810    0.2522 C.3     1  UNL1        0.1141
     18 C           3.7632   -0.5137   -0.0278 C.3     1  UNL1        0.1119
     19 C          -3.1623   -1.3259    0.4962 C.3     1  UNL1        0.1339
     20 C           2.5451   -1.0560   -0.7793 C.3     1  UNL1        0.1130
     21 C          -4.0690   -0.1612    0.0983 C.3     1  UNL1        0.1854
     22 C          -1.6733    2.3233   -1.1989 C.3     1  UNL1        0.0730
     23 C           2.6245   -2.5678   -0.9672 C.3     1  UNL1        0.0730
     24 H          -0.9039   -0.2567   -0.7858 H       1  UNL1        0.0651
     25 H          -1.9558   -0.4438    2.0775 H       1  UNL1        0.0648
     26 H           1.0105    1.0834   -0.8967 H       1  UNL1        0.0938
     27 H          -2.5471    1.8655    0.6980 H       1  UNL1        0.0647
     28 H           2.2292    0.9702    1.9266 H       1  UNL1        0.0671
     29 H           3.7527    1.5698   -0.6618 H       1  UNL1        0.0648
     30 H           3.9017   -1.0493    0.9194 H       1  UNL1        0.0647
     31 H           2.4568   -0.5950   -1.7726 H       1  UNL1        0.0647
     32 H          -2.9790   -1.9910   -0.3570 H       1  UNL1        0.0671
     33 H          -4.4248    0.3960    0.9727 H       1  UNL1        0.0935
     34 H          -1.3931    1.8421   -2.1418 H       1  UNL1        0.0584
     35 H          -0.8031    2.8504   -0.7981 H       1  UNL1        0.0584
     36 H           2.6528   -3.0896   -0.0050 H       1  UNL1        0.0584
     37 H           3.5015   -2.8585   -1.5525 H       1  UNL1        0.0584
     38 H          -0.8293   -2.3166    0.2682 H       1  UNL1        0.2100
     39 H           2.0334    2.9988   -0.0557 H       1  UNL1        0.2101
     40 H           5.4924    1.1528    0.7341 H       1  UNL1        0.2100
     41 H           4.8170   -0.2605   -1.6582 H       1  UNL1        0.2100
     42 H          -4.6799   -2.3938    1.1066 H       1  UNL1        0.2101
     43 H          -4.9442   -1.4468   -1.1031 H       1  UNL1        0.2126
     44 H          -3.4457    2.8068   -1.8379 H       1  UNL1        0.2095
     45 H           0.6919   -2.7099   -1.1431 H       1  UNL1        0.2095
@<TRIPOS>BOND
     1     1    12    1
     2     1    14    1
     3     2    14    1
     4     2    20    1
     5     3    15    1
     6     3    21    1
     7     4    13    1
     8     4    38    1
     9     5    16    1
    10     5    39    1
    11     6    17    1
    12     6    40    1
    13     7    18    1
    14     7    41    1
    15     8    19    1
    16     8    42    1
    17     9    21    1
    18     9    43    1
    19    10    22    1
    20    10    44    1
    21    11    23    1
    22    11    45    1
    23    12    13    1
    24    12    15    1
    25    12    24    1
    26    13    19    1
    27    13    25    1
    28    14    16    1
    29    14    26    1
    30    15    22    1
    31    15    27    1
    32    16    17    1
    33    16    28    1
    34    17    18    1
    35    17    29    1
    36    18    20    1
    37    18    30    1
    38    19    21    1
    39    19    32    1
    40    20    23    1
    41    20    31    1
    42    21    33    1
    43    22    34    1
    44    22    35    1
    45    23    36    1
    46    23    37    1
