@<TRIPOS>MOLECULE
chitobiose
 47 47 0 0 0
SMALL
GASTEIGER

@<TRIPOS>ATOM
      1 O          -1.2602    0.7297   -0.0823 O.3     1  UNL1       -0.3415
      2 O           0.5641   -0.4822    0.7083 O.3     1  UNL1       -0.3412
      3 O          -3.9229   -2.0469    1.3698 O.3     1  UNL1       -0.3874
      4 O          -4.7897   -0.1442   -0.6066 O.3     1  UNL1       -0.3865
      5 O           3.2841   -0.1747    1.4578 O.3     1  UNL1       -0.3872
      6 O          -1.9211    2.8086   -1.7448 O.3     1  UNL1       -0.3924
      7 O           2.6988   -2.3984    0.3415 O.3     1  UNL1       -0.3869
      8 O           3.5295   -2.8986   -2.2277 O.3     1  UNL1       -0.3924
      9 O           0.7657    3.6192   -0.0116 O.2     1  UNL1       -0.2993
     10 N          -1.1137   -2.8022    1.0425 N.3     1  UNL1       -0.3211
     11 N           3.2251    2.6876    1.6276 N.3     1  UNL1       -0.3194
     12 C          -1.6300   -1.4330    0.9550 C.3     1  UNL1        0.0853
     13 C          -3.0580   -1.4561    0.3983 C.3     1  UNL1        0.1033
     14 C          -0.7102   -0.5790    0.0742 C.3     1  UNL1        0.1777
     15 C          -3.5528   -0.0391    0.0935 C.3     1  UNL1        0.1109
     16 C          -2.5246    0.7225   -0.7486 C.3     1  UNL1        0.1129
     17 C           1.6089   -0.3081   -0.2589 C.3     1  UNL1        0.1173
     18 C           2.6893    0.5807    0.3913 C.3     1  UNL1        0.1055
     19 C          -2.9253    2.1775   -0.9712 C.3     1  UNL1        0.0730
     20 C           2.0838   -1.6909   -0.7363 C.3     1  UNL1        0.1068
     21 CA          2.1827    1.9197    0.9541 C.3     1  UNL1        0.0897
     22 C           3.1136   -1.5868   -1.8608 C.3     1  UNL1        0.0727
     23 C           1.6627    2.7948   -0.1651 C.2     1  UNL1        0.1395
     24 H          -1.6432   -1.0249    1.9739 H       1  UNL1        0.0535
     25 H          -3.1146   -2.0746   -0.5074 H       1  UNL1        0.0637
     26 H          -0.6208   -1.0427   -0.9183 H       1  UNL1        0.0927
     27 H          -3.7437    0.4951    1.0331 H       1  UNL1        0.0646
     28 H          -2.4000    0.2515   -1.7331 H       1  UNL1        0.0647
     29 H           1.2153    0.2435   -1.1240 H       1  UNL1        0.0650
     30 H           3.4828    0.7830   -0.3386 H       1  UNL1        0.0640
     31 H          -2.9974    2.7122   -0.0182 H       1  UNL1        0.0584
     32 H          -3.8793    2.2528   -1.5017 H       1  UNL1        0.0584
     33 H           1.2400   -2.3087   -1.0607 H       1  UNL1        0.0643
     34 H          -1.0740   -3.2167    0.1120 H       1  UNL1        0.1187
     35 H          -1.7627   -3.3767    1.5791 H       1  UNL1        0.1187
     36 HA          1.3729    1.7532    1.6727 H       1  UNL1        0.0561
     37 H          -4.7920   -2.1723    0.9534 H       1  UNL1        0.2100
     38 H          -5.4502   -0.5007    0.0110 H       1  UNL1        0.2100
     39 H           4.0111   -1.0519   -1.5373 H       1  UNL1        0.0584
     40 H           2.6894   -1.0910   -2.7393 H       1  UNL1        0.0584
     41 H           3.8226   -0.8775    1.0568 H       1  UNL1        0.2100
     42 H           2.9881   -3.2612   -0.0016 H       1  UNL1        0.2100
     43 H          -2.1933    3.7337   -1.8691 H       1  UNL1        0.2095
     44 H1          4.0129    2.8277    0.9951 H       1  UNL1        0.1189
     45 H2          3.5937    2.1420    2.4062 H       1  UNL1        0.1189
     46 H           2.1932    2.7219   -1.1307 H       1  UNL1        0.1044
     47 H           4.1780   -2.8013   -2.9457 H       1  UNL1        0.2095
@<TRIPOS>BOND
     1     1    14    1
     2     1    16    1
     3     2    14    1
     4     2    17    1
     5     3    13    1
     6     3    37    1
     7     4    15    1
     8     4    38    1
     9     5    18    1
    10     5    41    1
    11     6    19    1
    12     6    43    1
    13     7    20    1
    14     7    42    1
    15     8    22    1
    16     8    47    1
    17     9    23    2
    18    10    12    1
    19    10    34    1
    20    10    35    1
    21    11    21    1
    22    11    44    1
    23    11    45    1
    24    12    13    1
    25    12    14    1
    26    12    24    1
    27    13    15    1
    28    13    25    1
    29    14    26    1
    30    15    16    1
    31    15    27    1
    32    16    19    1
    33    16    28    1
    34    17    18    1
    35    17    20    1
    36    17    29    1
    37    18    21    1
    38    18    30    1
    39    19    31    1
    40    19    32    1
    41    20    22    1
    42    20    33    1
    43    21    23    1
    44    21    36    1
    45    22    39    1
    46    22    40    1
    47    23    46    1
