@<TRIPOS>MOLECULE
gentiobiose
 45 45 0 0 0
SMALL
GASTEIGER

@<TRIPOS>ATOM
      1 O          -1.7024    0.7291   -0.1015 O.3     1  UNL1       -0.3405
      2 O          -0.4817   -1.2102    0.3379 O.3     1  UNL1       -0.3461
      3 O          -5.1498   -0.9530    1.3658 O.3     1  UNL1       -0.3864
      4 O          -5.2960    1.4095   -0.2935 O.3     1  UNL1       -0.3865
      5 O          -2.9020   -2.6640    0.5287 O.3     1  UNL1       -0.3841
      6 O          -1.6024    3.1336   -1.4300 O.3     1  UNL1       -0.3924
      7 O           1.7669   -3.0969   -0.0925 O.3     1  UNL1       -0.3869
      8 O           2.8453   -1.4516   -2.2129 O.3     1  UNL1       -0.3865
      9 O           4.8815    0.3340   -1.1264 O.3     1  UNL1       -0.3861
     10 O           4.3598   -0.1382    1.6392 O.3     1  UNL1       -0.3819
     11 O           5.0864    2.4221    1.6495 O.2     1  UNL1       -0.2982
     12 C          -4.1902   -0.6306    0.3579 C.3     1  UNL1        0.1141
     13 C          -4.0924    0.8924    0.2680 C.3     1  UNL1        0.1119
     14 C          -2.8414   -1.2511    0.7224 C.3     1  UNL1        0.1341
     15 C          -2.9067    1.3099   -0.6051 C.3     1  UNL1        0.1130
     16 C          -1.7188   -0.6955   -0.1539 C.3     1  UNL1        0.1880
     17 C          -2.7182    2.8235   -0.6150 C.3     1  UNL1        0.0730
     18 C           1.8421   -1.6644   -0.0541 C.3     1  UNL1        0.1069
     19 C           0.5426   -1.1335   -0.6498 C.3     1  UNL1        0.0792
     20 C           3.1024   -1.2375   -0.8210 C.3     1  UNL1        0.1118
     21 C           3.5591    0.2133   -0.5885 C.3     1  UNL1        0.1159
     22 C           3.5407    0.7252    0.8580 C.3     1  UNL1        0.1381
     23 C           4.0751    2.1338    1.0168 C.2     1  UNL1        0.1512
     24 H          -4.5761   -1.0532   -0.5771 H       1  UNL1        0.0648
     25 H          -3.9933    1.3155    1.2752 H       1  UNL1        0.0647
     26 H          -2.6169   -1.0868    1.7830 H       1  UNL1        0.0671
     27 H          -3.0454    0.9789   -1.6434 H       1  UNL1        0.0647
     28 H          -1.8605   -1.0276   -1.1920 H       1  UNL1        0.0937
     29 H          -2.5086    3.1972    0.3928 H       1  UNL1        0.0584
     30 H          -3.5985    3.3356   -1.0151 H       1  UNL1        0.0584
     31 H           1.9238   -1.4087    1.0063 H       1  UNL1        0.0643
     32 H           0.2441   -1.7261   -1.5228 H       1  UNL1        0.0587
     33 H           0.6614   -0.0848   -0.9434 H       1  UNL1        0.0587
     34 H           3.9292   -1.9126   -0.5646 H       1  UNL1        0.0647
     35 H           2.9343    0.8765   -1.2004 H       1  UNL1        0.0650
     36 H          -4.8262   -0.6049    2.2141 H       1  UNL1        0.2100
     37 H          -5.3863    1.0508   -1.1929 H       1  UNL1        0.2100
     38 H          -3.1002   -2.8319   -0.4084 H       1  UNL1        0.2101
     39 H           2.5301    0.7168    1.2764 H       1  UNL1        0.0697
     40 H          -1.4982    4.1003   -1.4184 H       1  UNL1        0.2095
     41 H           0.9741   -3.3600    0.4060 H       1  UNL1        0.2100
     42 H           2.6233   -2.3915   -2.3280 H       1  UNL1        0.2100
     43 H           5.1083    1.2787   -1.1532 H       1  UNL1        0.2100
     44 H           3.4821    2.9196    0.5175 H       1  UNL1        0.1055
     45 H           5.2385   -0.1734    1.2235 H       1  UNL1        0.2105
@<TRIPOS>BOND
     1     1    15    1
     2     1    16    1
     3     2    16    1
     4     2    19    1
     5     3    12    1
     6     3    36    1
     7     4    13    1
     8     4    37    1
     9     5    14    1
    10     5    38    1
    11     6    17    1
    12     6    40    1
    13     7    18    1
    14     7    41    1
    15     8    20    1
    16     8    42    1
    17     9    21    1
    18     9    43    1
    19    10    22    1
    20    10    45    1
    21    11    23    2
    22    12    13    1
    23    12    14    1
    24    12    24    1
    25    13    15    1
    26    13    25    1
    27    14    16    1
    28    14    26    1
    29    15    17    1
    30    15    27    1
    31    16    28    1
    32    17    29    1
    33    17    30    1
    34    18    19    1
    35    18    20    1
    36    18    31    1
    37    19    32    1
    38    19    33    1
    39    20    21    1
    40    20    34    1
    41    21    22    1
    42    21    35    1
    43    22    23    1
    44    22    39    1
    45    23    44    1
