@<TRIPOS>MOLECULE
isomaltose
 45 46 0 0 0
SMALL
GASTEIGER

@<TRIPOS>ATOM
      1 O          -2.4360   -0.2369   -1.3880 O.3     1  UNL1       -0.3405
      2 O           2.3997    0.8459   -1.0877 O.3     1  UNL1       -0.3407
      3 O          -0.3502    0.6990   -0.7602 O.3     1  UNL1       -0.3460
      4 O           1.1252   -2.3128    0.2583 O.3     1  UNL1       -0.3865
      5 O          -1.6395    3.0765   -0.0119 O.3     1  UNL1       -0.3841
      6 O          -3.6850    2.0933    1.7838 O.3     1  UNL1       -0.3864
      7 O          -3.5894   -0.7631    2.0734 O.3     1  UNL1       -0.3865
      8 O           3.0405   -1.4614    2.2489 O.3     1  UNL1       -0.3864
      9 O           5.2821   -0.0321    0.9788 O.3     1  UNL1       -0.3841
     10 O           4.3829    2.0257   -0.7431 O.3     1  UNL1       -0.3649
     11 O          -2.6364   -2.9581   -1.4716 O.3     1  UNL1       -0.3924
     12 C           1.7336   -0.4179   -1.1036 C.3     1  UNL1        0.1134
     13 C           1.7173   -1.0174    0.3045 C.3     1  UNL1        0.1119
     14 C          -2.4276    1.9186   -0.2638 C.3     1  UNL1        0.1341
     15 C          -2.7835    1.2503    1.0628 C.3     1  UNL1        0.1141
     16 C          -1.6825    0.9622   -1.1963 C.3     1  UNL1        0.1880
     17 C          -3.4735   -0.0936    0.8200 C.3     1  UNL1        0.1119
     18 C           3.1361   -1.1295    0.8628 C.3     1  UNL1        0.1141
     19 C          -2.6796   -0.9538   -0.1724 C.3     1  UNL1        0.1130
     20 C           3.8982    0.1863    0.7058 C.3     1  UNL1        0.1339
     21 C           0.3227   -0.1876   -1.6357 C.3     1  UNL1        0.0796
     22 C           3.7713    0.7364   -0.7147 C.3     1  UNL1        0.1854
     23 C          -3.4266   -2.2301   -0.5500 C.3     1  UNL1        0.0730
     24 H           2.2492   -1.0885   -1.8040 H       1  UNL1        0.0647
     25 H           1.1151   -0.4081    0.9892 H       1  UNL1        0.0647
     26 H          -3.3543    2.2513   -0.7487 H       1  UNL1        0.0671
     27 H          -1.8966    1.1324    1.6962 H       1  UNL1        0.0648
     28 H          -1.6037    1.4519   -2.1751 H       1  UNL1        0.0937
     29 H          -4.4892    0.0740    0.4397 H       1  UNL1        0.0647
     30 H           3.6830   -1.9516    0.3847 H       1  UNL1        0.0648
     31 H          -1.7172   -1.2489    0.2654 H       1  UNL1        0.0647
     32 H           3.5399    0.9133    1.4445 H       1  UNL1        0.0671
     33 H          -0.2018   -1.1447   -1.7211 H       1  UNL1        0.0587
     34 H           0.3801    0.2734   -2.6291 H       1  UNL1        0.0587
     35 H           4.3046    0.1165   -1.4447 H       1  UNL1        0.0935
     36 H          -4.3777   -1.9945   -1.0390 H       1  UNL1        0.0584
     37 H          -3.6161   -2.8565    0.3269 H       1  UNL1        0.0584
     38 H           1.6534   -2.8634   -0.3446 H       1  UNL1        0.2100
     39 H          -1.4260    3.4782   -0.8714 H       1  UNL1        0.2101
     40 H          -4.4814    2.2203    1.2406 H       1  UNL1        0.2100
     41 H          -4.0919   -0.1816    2.6693 H       1  UNL1        0.2100
     42 H           2.5402   -2.2928    2.3153 H       1  UNL1        0.2100
     43 H           5.6172   -0.6807    0.3364 H       1  UNL1        0.2101
     44 H           4.1820    2.4816    0.0911 H       1  UNL1        0.2126
     45 H          -3.1308   -3.7635   -1.7004 H       1  UNL1        0.2095
@<TRIPOS>BOND
     1     1    16    1
     2     1    19    1
     3     2    12    1
     4     2    22    1
     5     3    16    1
     6     3    21    1
     7     4    13    1
     8     4    38    1
     9     5    14    1
    10     5    39    1
    11     6    15    1
    12     6    40    1
    13     7    17    1
    14     7    41    1
    15     8    18    1
    16     8    42    1
    17     9    20    1
    18     9    43    1
    19    10    22    1
    20    10    44    1
    21    11    23    1
    22    11    45    1
    23    12    13    1
    24    12    21    1
    25    12    24    1
    26    13    18    1
    27    13    25    1
    28    14    15    1
    29    14    16    1
    30    14    26    1
    31    15    17    1
    32    15    27    1
    33    16    28    1
    34    17    19    1
    35    17    29    1
    36    18    20    1
    37    18    30    1
    38    19    23    1
    39    19    31    1
    40    20    22    1
    41    20    32    1
    42    21    33    1
    43    21    34    1
    44    22    35    1
    45    23    36    1
    46    23    37    1
