@<TRIPOS>MOLECULE
lactose
 45 46 0 0 0
SMALL
GASTEIGER

@<TRIPOS>ATOM
      1 O          -0.0229   -0.8150   -0.7674 O.3     1  UNL1       -0.3401
      2 O           1.3923    0.7383    0.2490 O.3     1  UNL1       -0.3405
      3 O          -3.3886   -0.7489    0.6753 O.3     1  UNL1       -0.3407
      4 O          -0.7998    1.9588   -1.0079 O.3     1  UNL1       -0.3864
      5 O           2.1004   -2.7017   -0.7891 O.3     1  UNL1       -0.3841
      6 O           4.7194   -1.4747   -0.8285 O.3     1  UNL1       -0.3864
      7 O           3.9522    1.1954   -0.9330 O.3     1  UNL1       -0.3865
      8 O          -3.6986    2.1805   -1.4862 O.3     1  UNL1       -0.3841
      9 O          -5.1972    0.6998    0.4031 O.3     1  UNL1       -0.3649
     10 O          -2.7280   -3.3492    1.2737 O.3     1  UNL1       -0.3924
     11 O           1.4497    2.8796    1.9670 O.3     1  UNL1       -0.3924
     12 C          -1.1602   -0.2387   -0.1307 C.3     1  UNL1        0.1184
     13 C          -1.7265    0.8718   -1.0158 C.3     1  UNL1        0.1144
     14 C           1.1533   -0.6504    0.0241 C.3     1  UNL1        0.1884
     15 C          -2.2088   -1.3265    0.1134 C.3     1  UNL1        0.1134
     16 C           2.3201   -1.2924   -0.7297 C.3     1  UNL1        0.1341
     17 C           3.6427   -1.0193   -0.0138 C.3     1  UNL1        0.1141
     18 C           3.8055    0.4704    0.2897 C.3     1  UNL1        0.1119
     19 C          -3.0818    1.3546   -0.4988 C.3     1  UNL1        0.1339
     20 C           2.5673    0.9868    1.0309 C.3     1  UNL1        0.1130
     21 C          -4.0156    0.1803   -0.2057 C.3     1  UNL1        0.1854
     22 C          -1.7064   -2.3865    1.0886 C.3     1  UNL1        0.0730
     23 C           2.6314    2.4872    1.2919 C.3     1  UNL1        0.0730
     24 H          -0.8997    0.2071    0.8410 H       1  UNL1        0.0651
     25 H          -1.8089    0.5401   -2.0582 H       1  UNL1        0.0648
     26 H           0.9984   -1.1605    0.9843 H       1  UNL1        0.0938
     27 H          -2.4783   -1.8288   -0.8257 H       1  UNL1        0.0647
     28 H           2.3638   -0.9369   -1.7663 H       1  UNL1        0.0671
     29 H           3.6852   -1.5921    0.9211 H       1  UNL1        0.0648
     30 H           4.7178    0.6405    0.8712 H       1  UNL1        0.0647
     31 H           2.4478    0.4668    1.9905 H       1  UNL1        0.0647
     32 H          -2.9417    1.9739    0.3959 H       1  UNL1        0.0671
     33 H          -4.3179   -0.3225   -1.1332 H       1  UNL1        0.0935
     34 H          -1.4720   -1.9544    2.0671 H       1  UNL1        0.0584
     35 H          -0.8203   -2.9015    0.7073 H       1  UNL1        0.0584
     36 H           2.6820    3.0637    0.3627 H       1  UNL1        0.0584
     37 H           3.4927    2.7455    1.9149 H       1  UNL1        0.0584
     38 H           0.0455    1.6245   -1.3535 H       1  UNL1        0.2100
     39 H           1.2402   -2.8440   -1.2201 H       1  UNL1        0.2101
     40 H           4.5671   -2.4175   -1.0125 H       1  UNL1        0.2100
     41 H           3.0990    1.1850   -1.3985 H       1  UNL1        0.2100
     42 H          -4.5603    2.4617   -1.1337 H       1  UNL1        0.2101
     43 H          -5.9095    0.0597    0.2348 H       1  UNL1        0.2126
     44 H          -3.5127   -2.8843    1.6112 H       1  UNL1        0.2095
     45 H           0.6947    2.6344    1.4049 H       1  UNL1        0.2095
@<TRIPOS>BOND
     1     1    12    1
     2     1    14    1
     3     2    14    1
     4     2    20    1
     5     3    15    1
     6     3    21    1
     7     4    13    1
     8     4    38    1
     9     5    16    1
    10     5    39    1
    11     6    17    1
    12     6    40    1
    13     7    18    1
    14     7    41    1
    15     8    19    1
    16     8    42    1
    17     9    21    1
    18     9    43    1
    19    10    22    1
    20    10    44    1
    21    11    23    1
    22    11    45    1
    23    12    13    1
    24    12    15    1
    25    12    24    1
    26    13    19    1
    27    13    25    1
    28    14    16    1
    29    14    26    1
    30    15    22    1
    31    15    27    1
    32    16    17    1
    33    16    28    1
    34    17    18    1
    35    17    29    1
    36    18    20    1
    37    18    30    1
    38    19    21    1
    39    19    32    1
    40    20    23    1
    41    20    31    1
    42    21    33    1
    43    22    34    1
    44    22    35    1
    45    23    36    1
    46    23    37    1
