@<TRIPOS>MOLECULE
lactulose
 45 46 0 0 0
SMALL
GASTEIGER

@<TRIPOS>ATOM
      1 O          -0.1840    0.9712   -0.2274 O.3     1  UNL1       -0.3400
      2 O          -3.2742    0.5171    0.2155 O.3     1  UNL1       -0.3364
      3 O           1.4274   -0.7177   -0.2447 O.3     1  UNL1       -0.3405
      4 O          -1.9890   -2.1292   -0.5867 O.3     1  UNL1       -0.3837
      5 O          -3.4499   -1.4410    1.5323 O.3     1  UNL1       -0.3608
      6 O           1.8748    2.9072   -0.5127 O.3     1  UNL1       -0.3841
      7 O           4.4233    2.0286    0.5355 O.3     1  UNL1       -0.3864
      8 O           3.6612   -0.4586    1.5164 O.3     1  UNL1       -0.3865
      9 O          -4.4784    1.1745   -2.2039 O.3     1  UNL1       -0.3924
     10 O          -3.1288    0.8366    2.9860 O.3     1  UNL1       -0.3896
     11 O           1.8730   -3.3369   -0.9386 O.3     1  UNL1       -0.3924
     12 C          -1.1480    0.0971   -0.8048 C.3     1  UNL1        0.1210
     13 C          -1.4695   -1.0290    0.1572 C.3     1  UNL1        0.1396
     14 C          -2.4751    0.8429   -0.9392 C.3     1  UNL1        0.1138
     15 C          -2.5743   -0.4343    1.0333 C.3     1  UNL1        0.2205
     16 C           1.1395    0.6246   -0.6340 C.3     1  UNL1        0.1884
     17 C           2.1071    1.6072    0.0294 C.3     1  UNL1        0.1341
     18 C           3.5566    1.2027   -0.2372 C.3     1  UNL1        0.1141
     19 C           3.7881   -0.2694    0.1056 C.3     1  UNL1        0.1119
     20 C           2.7478   -1.1380   -0.6101 C.3     1  UNL1        0.1130
     21 C          -3.2663    0.4393   -2.1762 C.3     1  UNL1        0.0730
     22 C          -2.0348    0.3178    2.2494 C.3     1  UNL1        0.1006
     23 C           2.8734   -2.6125   -0.2452 C.3     1  UNL1        0.0730
     24 H          -0.8087   -0.2492   -1.7892 H       1  UNL1        0.0651
     25 H          -0.6415   -1.3997    0.7660 H       1  UNL1        0.0675
     26 H          -2.3366    1.9303   -0.9302 H       1  UNL1        0.0647
     27 H           1.1999    0.7191   -1.7270 H       1  UNL1        0.0938
     28 H           1.9199    1.6781    1.1076 H       1  UNL1        0.0671
     29 H           3.8045    1.3784   -1.2915 H       1  UNL1        0.0648
     30 H           4.8075   -0.5649   -0.1640 H       1  UNL1        0.0647
     31 H           2.8431   -1.0349   -1.6990 H       1  UNL1        0.0647
     32 H          -3.5268   -0.6233   -2.1703 H       1  UNL1        0.0584
     33 H          -2.7090    0.6606   -3.0912 H       1  UNL1        0.0584
     34 H          -1.4008    1.1625    1.9681 H       1  UNL1        0.0612
     35 H          -1.4748   -0.3545    2.9080 H       1  UNL1        0.0612
     36 H           2.7181   -2.7856    0.8244 H       1  UNL1        0.0584
     37 H           3.8526   -3.0096   -0.5285 H       1  UNL1        0.0584
     38 H          -1.2741   -2.4565   -1.1588 H       1  UNL1        0.2101
     39 H          -3.9087   -1.0906    2.3143 H       1  UNL1        0.2129
     40 H           0.9411    3.1266   -0.3519 H       1  UNL1        0.2101
     41 H           4.2308    2.9526    0.3014 H       1  UNL1        0.2100
     42 H           2.7257   -0.3486    1.7565 H       1  UNL1        0.2100
     43 H          -4.9613    0.9746   -1.3838 H       1  UNL1        0.2095
     44 H          -2.7615    1.2995    3.7581 H       1  UNL1        0.2096
     45 H           1.0110   -2.9688   -0.6794 H       1  UNL1        0.2095
@<TRIPOS>BOND
     1     1    12    1
     2     1    16    1
     3     2    14    1
     4     2    15    1
     5     3    16    1
     6     3    20    1
     7     4    13    1
     8     4    38    1
     9     5    15    1
    10     5    39    1
    11     6    17    1
    12     6    40    1
    13     7    18    1
    14     7    41    1
    15     8    19    1
    16     8    42    1
    17     9    21    1
    18     9    43    1
    19    10    22    1
    20    10    44    1
    21    11    23    1
    22    11    45    1
    23    12    13    1
    24    12    14    1
    25    12    24    1
    26    13    15    1
    27    13    25    1
    28    14    21    1
    29    14    26    1
    30    15    22    1
    31    16    17    1
    32    16    27    1
    33    17    18    1
    34    17    28    1
    35    18    19    1
    36    18    29    1
    37    19    20    1
    38    19    30    1
    39    20    23    1
    40    20    31    1
    41    21    32    1
    42    21    33    1
    43    22    34    1
    44    22    35    1
    45    23    36    1
    46    23    37    1
