@<TRIPOS>MOLECULE
maltose
 45 46 0 0 0
SMALL
GASTEIGER

@<TRIPOS>ATOM
      1 O          -0.1247   -0.3784   -0.3919 O.3     1  UNL1       -0.3401
      2 O          -1.6785    0.3057    1.2628 O.3     1  UNL1       -0.3405
      3 O           3.1300    1.2964   -0.2652 O.3     1  UNL1       -0.3407
      4 O           1.5026   -2.1944    1.1603 O.3     1  UNL1       -0.3864
      5 O          -1.3847   -2.8812   -0.5439 O.3     1  UNL1       -0.3841
      6 O          -4.1414   -2.1228   -0.9927 O.3     1  UNL1       -0.3864
      7 O          -4.4759    0.7282   -1.1004 O.3     1  UNL1       -0.3865
      8 O           4.2965   -2.1309    0.2270 O.3     1  UNL1       -0.3841
      9 O           5.3002    0.5106    0.0765 O.3     1  UNL1       -0.3649
     10 O           1.6821    3.2878   -1.4876 O.3     1  UNL1       -0.3924
     11 O          -2.0640    2.9850    1.6168 O.3     1  UNL1       -0.3924
     12 C           1.1607   -0.0593    0.1344 C.3     1  UNL1        0.1184
     13 C           2.0246   -1.3204    0.1584 C.3     1  UNL1        0.1144
     14 C          -1.0183   -0.7970    0.6380 C.3     1  UNL1        0.1884
     15 C           1.8068    1.0253   -0.7310 C.3     1  UNL1        0.1134
     16 C          -2.0402   -1.8240    0.1475 C.3     1  UNL1        0.1341
     17 C          -3.0825   -1.1885   -0.7706 C.3     1  UNL1        0.1141
     18 C          -3.6762    0.0647   -0.1243 C.3     1  UNL1        0.1119
     19 C           3.4812   -0.9874    0.4819 C.3     1  UNL1        0.1339
     20 C          -2.5730    1.0012    0.3868 C.3     1  UNL1        0.1130
     21 C           3.9923    0.1670   -0.3801 C.3     1  UNL1        0.1854
     22 C           1.0229    2.3327   -0.6763 C.3     1  UNL1        0.0730
     23 C          -3.1405    2.1796    1.1735 C.3     1  UNL1        0.0730
     24 H           1.0660    0.3323    1.1584 H       1  UNL1        0.0651
     25 H           1.9469   -1.8581   -0.7946 H       1  UNL1        0.0648
     26 H          -0.4763   -1.2861    1.4484 H       1  UNL1        0.0938
     27 H           1.8637    0.7066   -1.7807 H       1  UNL1        0.0647
     28 H          -2.5564   -2.2685    1.0075 H       1  UNL1        0.0671
     29 H          -2.6501   -0.9634   -1.7533 H       1  UNL1        0.0648
     30 H          -4.3347   -0.2255    0.7046 H       1  UNL1        0.0647
     31 H          -2.0009    1.4058   -0.4559 H       1  UNL1        0.0647
     32 H           3.5753   -0.7572    1.5506 H       1  UNL1        0.0671
     33 H           4.0894   -0.1220   -1.4330 H       1  UNL1        0.0935
     34 H           0.9729    2.7322    0.3419 H       1  UNL1        0.0584
     35 H           0.0086    2.2108   -1.0609 H       1  UNL1        0.0584
     36 H          -3.6917    1.8423    2.0574 H       1  UNL1        0.0584
     37 H          -3.8036    2.7936    0.5574 H       1  UNL1        0.0584
     38 H           2.0726   -2.9820    1.1835 H       1  UNL1        0.2100
     39 H          -0.8788   -2.4879   -1.2756 H       1  UNL1        0.2101
     40 H          -4.7218   -1.7532   -1.6790 H       1  UNL1        0.2100
     41 H          -5.2454    0.1643   -1.2860 H       1  UNL1        0.2100
     42 H           5.2144   -1.8872    0.4363 H       1  UNL1        0.2101
     43 H           5.3143    0.4499    1.0462 H       1  UNL1        0.2126
     44 H           2.5860    3.3917   -1.1441 H       1  UNL1        0.2095
     45 H          -1.4758    2.4236    2.1504 H       1  UNL1        0.2095
@<TRIPOS>BOND
     1     1    12    1
     2     1    14    1
     3     2    14    1
     4     2    20    1
     5     3    15    1
     6     3    21    1
     7     4    13    1
     8     4    38    1
     9     5    16    1
    10     5    39    1
    11     6    17    1
    12     6    40    1
    13     7    18    1
    14     7    41    1
    15     8    19    1
    16     8    42    1
    17     9    21    1
    18     9    43    1
    19    10    22    1
    20    10    44    1
    21    11    23    1
    22    11    45    1
    23    12    13    1
    24    12    15    1
    25    12    24    1
    26    13    19    1
    27    13    25    1
    28    14    16    1
    29    14    26    1
    30    15    22    1
    31    15    27    1
    32    16    17    1
    33    16    28    1
    34    17    18    1
    35    17    29    1
    36    18    20    1
    37    18    30    1
    38    19    21    1
    39    19    32    1
    40    20    23    1
    41    20    31    1
    42    21    33    1
    43    22    34    1
    44    22    35    1
    45    23    36    1
    46    23    37    1
