@<TRIPOS>MOLECULE
maltotriose
 66 67 0 0 0
SMALL
GASTEIGER

@<TRIPOS>ATOM
      1 O           2.1023   -0.1796   -0.2762 O.3     1  UNL1       -0.3401
      2 O          -0.5497    1.1087    0.1689 O.3     1  UNL1       -0.3405
      3 O           4.3350    0.2364   -0.9559 O.3     1  UNL1       -0.3405
      4 O          -2.4793   -0.1693    0.5289 O.3     1  UNL1       -0.3401
      5 O          -0.1754   -0.3662   -3.0963 O.3     1  UNL1       -0.3864
      6 O          -0.2453   -1.7727    0.2525 O.3     1  UNL1       -0.3841
      7 O           2.7449   -2.8700    0.1966 O.3     1  UNL1       -0.3841
      8 O           5.0463   -2.6259    1.9341 O.3     1  UNL1       -0.3864
      9 O           5.7214    0.1168    2.4576 O.3     1  UNL1       -0.3865
     10 O           1.0435    3.0683   -2.4758 O.3     1  UNL1       -0.3924
     11 O           5.2449    2.8073   -0.8330 O.3     1  UNL1       -0.3924
     12 O          -5.5765    1.3007   -0.7288 O.3     1  UNL1       -0.3861
     13 O          -5.1372    1.8874    1.9094 O.3     1  UNL1       -0.3869
     14 O          -6.2342   -1.2924   -1.3844 O.3     1  UNL1       -0.3819
     15 O          -3.7285    1.3554    4.2183 O.3     1  UNL1       -0.3924
     16 O          -4.3893   -3.1890   -1.0978 O.2     1  UNL1       -0.2982
     17 C           1.2785    0.3786   -1.3047 C.3     1  UNL1        0.1184
     18 C           0.3835   -0.7454   -1.8426 C.3     1  UNL1        0.1144
     19 C           0.4917    1.5581   -0.7075 C.3     1  UNL1        0.1134
     20 C          -0.7609   -1.0728   -0.8807 C.3     1  UNL1        0.1341
     21 C          -1.4770    0.1975   -0.4172 C.3     1  UNL1        0.1884
     22 C           3.2993   -0.7380   -0.8144 C.3     1  UNL1        0.1884
     23 C           3.8008   -1.9385   -0.0102 C.3     1  UNL1        0.1341
     24 C           4.3725   -1.5135    1.3409 C.3     1  UNL1        0.1141
     25 C           5.3835   -0.3787    1.1643 C.3     1  UNL1        0.1119
     26 C           4.8071    0.7478    0.2958 C.3     1  UNL1        0.1130
     27 C          -0.0493    2.5287   -1.7554 C.3     1  UNL1        0.0730
     28 C          -3.5906    0.7316    0.4797 C.3     1  UNL1        0.1183
     29 C           5.8499    1.8155   -0.0240 C.3     1  UNL1        0.0730
     30 C          -4.6009    0.2618   -0.5816 C.3     1  UNL1        0.1162
     31 C          -4.1418    0.8536    1.9080 C.3     1  UNL1        0.1069
     32 C          -5.3058   -1.0771   -0.3267 C.3     1  UNL1        0.1382
     33 C          -3.0950    1.2412    2.9469 C.3     1  UNL1        0.0727
     34 C          -4.3682   -2.2663   -0.2888 C.2     1  UNL1        0.1512
     35 H           1.9204    0.7688   -2.1051 H       1  UNL1        0.0651
     36 H           0.9648   -1.6582   -2.0129 H       1  UNL1        0.0648
     37 H           1.1857    2.1210   -0.0695 H       1  UNL1        0.0647
     38 H          -1.4914   -1.7353   -1.3599 H       1  UNL1        0.0671
     39 H          -1.9428    0.6668   -1.2905 H       1  UNL1        0.0938
     40 H           3.0986   -1.1180   -1.8239 H       1  UNL1        0.0938
     41 H           4.5834   -2.4512   -0.5843 H       1  UNL1        0.0671
     42 H           3.5720   -1.2319    2.0349 H       1  UNL1        0.0648
     43 H           6.3035   -0.7718    0.7147 H       1  UNL1        0.0647
     44 H           3.9696    1.2414    0.8066 H       1  UNL1        0.0647
     45 H          -0.7345    2.0548   -2.4621 H       1  UNL1        0.0584
     46 H          -0.5950    3.3441   -1.2682 H       1  UNL1        0.0584
     47 H          -3.2491    1.7396    0.1974 H       1  UNL1        0.0651
     48 H           6.6850    1.3877   -0.5887 H       1  UNL1        0.0584
     49 H           6.2322    2.2860    0.8869 H       1  UNL1        0.0584
     50 H           0.5621   -0.1902   -3.7050 H       1  UNL1        0.2100
     51 H          -4.0903    0.1924   -1.5499 H       1  UNL1        0.0650
     52 H          -4.6263   -0.0756    2.2266 H       1  UNL1        0.0643
     53 H           0.1813   -2.5838   -0.0725 H       1  UNL1        0.2101
     54 H           3.1044   -3.6081    0.7178 H       1  UNL1        0.2101
     55 H           5.7543   -2.9085    1.3303 H       1  UNL1        0.2100
     56 H           4.9193    0.5011    2.8507 H       1  UNL1        0.2100
     57 H          -5.8877   -1.0577    0.5988 H       1  UNL1        0.0697
     58 H           0.6787    3.6944   -3.1241 H       1  UNL1        0.2095
     59 H          -2.3045    0.4888    3.0228 H       1  UNL1        0.0584
     60 H          -2.6501    2.2133    2.7097 H       1  UNL1        0.0584
     61 H           5.9255    3.4741   -1.0268 H       1  UNL1        0.2095
     62 H          -6.2049    1.0148   -1.4137 H       1  UNL1        0.2100
     63 H          -5.4938    1.9459    2.8124 H       1  UNL1        0.2100
     64 H          -3.6728   -2.3010    0.5651 H       1  UNL1        0.1055
     65 H          -5.7456   -1.2684   -2.2250 H       1  UNL1        0.2105
     66 H          -3.0401    1.6072    4.8572 H       1  UNL1        0.2095
@<TRIPOS>BOND
     1     1    17    1
     2     1    22    1
     3     2    19    1
     4     2    21    1
     5     3    22    1
     6     3    26    1
     7     4    21    1
     8     4    28    1
     9     5    18    1
    10     5    50    1
    11     6    20    1
    12     6    53    1
    13     7    23    1
    14     7    54    1
    15     8    24    1
    16     8    55    1
    17     9    25    1
    18     9    56    1
    19    10    27    1
    20    10    58    1
    21    11    29    1
    22    11    61    1
    23    12    30    1
    24    12    62    1
    25    13    31    1
    26    13    63    1
    27    14    32    1
    28    14    65    1
    29    15    33    1
    30    15    66    1
    31    16    34    2
    32    17    18    1
    33    17    19    1
    34    17    35    1
    35    18    20    1
    36    18    36    1
    37    19    27    1
    38    19    37    1
    39    20    21    1
    40    20    38    1
    41    21    39    1
    42    22    23    1
    43    22    40    1
    44    23    24    1
    45    23    41    1
    46    24    25    1
    47    24    42    1
    48    25    26    1
    49    25    43    1
    50    26    29    1
    51    26    44    1
    52    27    45    1
    53    27    46    1
    54    28    30    1
    55    28    31    1
    56    28    47    1
    57    29    48    1
    58    29    49    1
    59    30    32    1
    60    30    51    1
    61    31    33    1
    62    31    52    1
    63    32    34    1
    64    32    57    1
    65    33    59    1
    66    33    60    1
    67    34    64    1
