@<TRIPOS>MOLECULE
melibiose
 45 46 0 0 0
SMALL
GASTEIGER

@<TRIPOS>ATOM
      1 O          -2.4532    0.4016    1.2149 O.3     1  UNL1       -0.3405
      2 O           2.3761   -0.7722    1.1516 O.3     1  UNL1       -0.3407
      3 O          -0.3625   -0.6044    0.7484 O.3     1  UNL1       -0.3460
      4 O           1.1868    2.3135   -0.4224 O.3     1  UNL1       -0.3865
      5 O          -1.6035   -3.0090    0.1664 O.3     1  UNL1       -0.3841
      6 O          -3.3566   -2.1410   -1.9432 O.3     1  UNL1       -0.3864
      7 O          -4.6609   -0.1025   -0.5855 O.3     1  UNL1       -0.3865
      8 O           3.1337    1.3076   -2.3077 O.3     1  UNL1       -0.3864
      9 O           5.3205   -0.0720   -0.8953 O.3     1  UNL1       -0.3841
     10 O           4.3467   -2.0019    0.9311 O.3     1  UNL1       -0.3649
     11 O          -2.6188    3.1290    1.0885 O.3     1  UNL1       -0.3924
     12 C           1.7312    0.5001    1.0712 C.3     1  UNL1        0.1134
     13 C           1.7580    1.0087   -0.3720 C.3     1  UNL1        0.1119
     14 C          -2.3954   -1.8282    0.2436 C.3     1  UNL1        0.1341
     15 C          -2.5979   -1.2326   -1.1496 C.3     1  UNL1        0.1141
     16 C          -1.7094   -0.8189    1.1677 C.3     1  UNL1        0.1880
     17 C          -3.3256    0.1109   -1.0500 C.3     1  UNL1        0.1119
     18 C           3.1912    1.0634   -0.9015 C.3     1  UNL1        0.1141
     19 C          -2.5999    1.0366   -0.0649 C.3     1  UNL1        0.1130
     20 C           3.9271   -0.2514   -0.6429 C.3     1  UNL1        0.1339
     21 C           0.3045    0.3257    1.5821 C.3     1  UNL1        0.0796
     22 C           3.7577   -0.7078    0.8062 C.3     1  UNL1        0.1854
     23 C          -3.3498    2.3447    0.1632 C.3     1  UNL1        0.0730
     24 H           2.2415    1.2059    1.7402 H       1  UNL1        0.0647
     25 H           1.1619    0.3664   -1.0312 H       1  UNL1        0.0647
     26 H          -3.3675   -2.1216    0.6576 H       1  UNL1        0.0671
     27 H          -1.6313   -1.0995   -1.6505 H       1  UNL1        0.0648
     28 H          -1.6818   -1.2351    2.1822 H       1  UNL1        0.0937
     29 H          -3.4066    0.5711   -2.0405 H       1  UNL1        0.0647
     30 H           3.7404    1.9057   -0.4632 H       1  UNL1        0.0648
     31 H          -1.5999    1.2761   -0.4463 H       1  UNL1        0.0647
     32 H           3.5741   -1.0184   -1.3426 H       1  UNL1        0.0671
     33 H          -0.2069    1.2936    1.5957 H       1  UNL1        0.0587
     34 H           0.3310   -0.0730    2.6034 H       1  UNL1        0.0587
     35 H           4.2841   -0.0509    1.5082 H       1  UNL1        0.0935
     36 H          -4.3387    2.1687    0.5983 H       1  UNL1        0.0584
     37 H          -3.4597    2.9036   -0.7713 H       1  UNL1        0.0584
     38 H           1.7099    2.8932    0.1573 H       1  UNL1        0.2100
     39 H          -1.4984   -3.3516    1.0703 H       1  UNL1        0.2101
     40 H          -2.8763   -2.9865   -1.9573 H       1  UNL1        0.2100
     41 H          -4.6246   -0.3338    0.3577 H       1  UNL1        0.2100
     42 H           2.6491    2.1406   -2.4388 H       1  UNL1        0.2100
     43 H           5.6513    0.6110   -0.2872 H       1  UNL1        0.2101
     44 H           4.1577   -2.5069    0.1227 H       1  UNL1        0.2126
     45 H          -3.1114    3.9577    1.2148 H       1  UNL1        0.2095
@<TRIPOS>BOND
     1     1    16    1
     2     1    19    1
     3     2    12    1
     4     2    22    1
     5     3    16    1
     6     3    21    1
     7     4    13    1
     8     4    38    1
     9     5    14    1
    10     5    39    1
    11     6    15    1
    12     6    40    1
    13     7    17    1
    14     7    41    1
    15     8    18    1
    16     8    42    1
    17     9    20    1
    18     9    43    1
    19    10    22    1
    20    10    44    1
    21    11    23    1
    22    11    45    1
    23    12    13    1
    24    12    21    1
    25    12    24    1
    26    13    18    1
    27    13    25    1
    28    14    15    1
    29    14    16    1
    30    14    26    1
    31    15    17    1
    32    15    27    1
    33    16    28    1
    34    17    19    1
    35    17    29    1
    36    18    20    1
    37    18    30    1
    38    19    23    1
    39    19    31    1
    40    20    22    1
    41    20    32    1
    42    21    33    1
    43    21    34    1
    44    22    35    1
    45    23    36    1
    46    23    37    1
