@<TRIPOS>MOLECULE
raffinose
 66 68 0 0 0
SMALL
GASTEIGER

@<TRIPOS>ATOM
      1 O          -2.8577   -1.1004    0.0069 O.3     1  UNL1       -0.3125
      2 O          -3.0627    1.2206   -0.4137 O.3     1  UNL1       -0.3362
      3 O          -0.7193   -0.1993   -0.4787 O.3     1  UNL1       -0.3404
      4 O           1.9291    0.4606    0.0157 O.3     1  UNL1       -0.3460
      5 O          -3.8382    0.0452    2.2497 O.3     1  UNL1       -0.3837
      6 O          -6.1963    1.8516    0.2376 O.3     1  UNL1       -0.3864
      7 O           3.9172    0.9030    1.2211 O.3     1  UNL1       -0.3405
      8 O          -2.3117   -3.2967   -1.6523 O.3     1  UNL1       -0.3841
      9 O           0.2170   -4.2195   -0.5895 O.3     1  UNL1       -0.3864
     10 O           1.1138   -2.6145    1.6177 O.3     1  UNL1       -0.3865
     11 O          -5.3373   -1.5096   -1.1776 O.3     1  UNL1       -0.3896
     12 O           2.6241    2.3354   -1.8983 O.3     1  UNL1       -0.3841
     13 O           5.1564    1.2514   -2.7282 O.3     1  UNL1       -0.3864
     14 O          -1.8862    3.6897    0.0885 O.3     1  UNL1       -0.3924
     15 O           6.3969    1.1510   -0.2483 O.3     1  UNL1       -0.3865
     16 O           4.8428   -1.4340    2.7525 O.3     1  UNL1       -0.3924
     17 C          -3.7577   -0.0125   -0.1769 C.3     1  UNL1        0.2252
     18 C          -4.6121    0.2364    1.0662 C.3     1  UNL1        0.1395
     19 C          -4.9756    1.7055    0.9561 C.3     1  UNL1        0.1145
     20 C          -1.7800   -1.0462   -0.9259 C.3     1  UNL1        0.1912
     21 C          -3.8386    2.3097    0.1271 C.3     1  UNL1        0.1134
     22 C          -1.2424   -2.4328   -1.2837 C.3     1  UNL1        0.1342
     23 C          -0.0511   -0.6950    0.6870 C.3     1  UNL1        0.1134
     24 C          -0.4670   -3.0539   -0.1236 C.3     1  UNL1        0.1141
     25 C           0.5735   -2.0704    0.4159 C.3     1  UNL1        0.1119
     26 C          -4.5842   -0.3341   -1.4222 C.3     1  UNL1        0.1009
     27 C           0.9974    0.3440    1.0751 C.3     1  UNL1        0.0796
     28 C           2.9449    1.4192    0.3081 C.3     1  UNL1        0.1880
     29 C           3.6190    1.8848   -0.9850 C.3     1  UNL1        0.1341
     30 C          -2.9036    3.1916    0.9415 C.3     1  UNL1        0.0730
     31 C           4.4352    0.7511   -1.6059 C.3     1  UNL1        0.1141
     32 C           5.4070    0.1720   -0.5738 C.3     1  UNL1        0.1119
     33 C           4.6544   -0.2165    0.7055 C.3     1  UNL1        0.1130
     34 C           5.5927   -0.6874    1.8114 C.3     1  UNL1        0.0730
     35 H          -5.4765   -0.4316    1.1283 H       1  UNL1        0.0675
     36 H          -5.1013    2.1963    1.9268 H       1  UNL1        0.0648
     37 H          -2.1021   -0.6138   -1.8761 H       1  UNL1        0.0939
     38 H          -4.2154    2.8787   -0.7313 H       1  UNL1        0.0647
     39 H          -0.5714   -2.3528   -2.1488 H       1  UNL1        0.0671
     40 H          -0.7708   -0.7594    1.5133 H       1  UNL1        0.0647
     41 H          -1.1469   -3.3910    0.6674 H       1  UNL1        0.0648
     42 H           1.3974   -1.9916   -0.3032 H       1  UNL1        0.0647
     43 H          -3.9959   -0.4950   -2.3279 H       1  UNL1        0.0612
     44 H          -5.2777    0.4771   -1.6651 H       1  UNL1        0.0612
     45 H           0.5060    1.3126    1.2283 H       1  UNL1        0.0587
     46 H           1.5065    0.0507    2.0000 H       1  UNL1        0.0587
     47 H           2.4800    2.2957    0.7770 H       1  UNL1        0.0937
     48 H           4.2784    2.7376   -0.7836 H       1  UNL1        0.0671
     49 H          -2.4182    2.6176    1.7376 H       1  UNL1        0.0584
     50 H          -3.4427    4.0373    1.3793 H       1  UNL1        0.0584
     51 H           3.7623   -0.0301   -1.9799 H       1  UNL1        0.0648
     52 H           5.9394   -0.6867   -0.9962 H       1  UNL1        0.0647
     53 H           3.9410   -1.0203    0.4814 H       1  UNL1        0.0647
     54 H          -4.4107    0.2505    3.0084 H       1  UNL1        0.2101
     55 H          -6.3746    2.8043    0.1568 H       1  UNL1        0.2100
     56 H          -2.7888   -2.8753   -2.3873 H       1  UNL1        0.2101
     57 H           0.8192   -3.9525   -1.3047 H       1  UNL1        0.2100
     58 H           0.3972   -2.6654    2.2731 H       1  UNL1        0.2100
     59 H           6.0582    0.1545    2.3341 H       1  UNL1        0.0584
     60 H           6.3706   -1.3456    1.4119 H       1  UNL1        0.0584
     61 H          -5.8685   -1.6817   -1.9737 H       1  UNL1        0.2096
     62 H           2.1275    3.0493   -1.4631 H       1  UNL1        0.2101
     63 H           5.6784    0.5157   -3.0914 H       1  UNL1        0.2100
     64 H          -1.3010    4.2430    0.6335 H       1  UNL1        0.2095
     65 H           5.9819    1.8356    0.3027 H       1  UNL1        0.2100
     66 H           5.4602   -1.7272    3.4443 H       1  UNL1        0.2095
@<TRIPOS>BOND
     1     1    17    1
     2     1    20    1
     3     2    17    1
     4     2    21    1
     5     3    20    1
     6     3    23    1
     7     4    27    1
     8     4    28    1
     9     5    18    1
    10     5    54    1
    11     6    19    1
    12     6    55    1
    13     7    28    1
    14     7    33    1
    15     8    22    1
    16     8    56    1
    17     9    24    1
    18     9    57    1
    19    10    25    1
    20    10    58    1
    21    11    26    1
    22    11    61    1
    23    12    29    1
    24    12    62    1
    25    13    31    1
    26    13    63    1
    27    14    30    1
    28    14    64    1
    29    15    32    1
    30    15    65    1
    31    16    34    1
    32    16    66    1
    33    17    18    1
    34    17    26    1
    35    18    19    1
    36    18    35    1
    37    19    21    1
    38    19    36    1
    39    20    22    1
    40    20    37    1
    41    21    30    1
    42    21    38    1
    43    22    24    1
    44    22    39    1
    45    23    25    1
    46    23    27    1
    47    23    40    1
    48    24    25    1
    49    24    41    1
    50    25    42    1
    51    26    43    1
    52    26    44    1
    53    27    45    1
    54    27    46    1
    55    28    29    1
    56    28    47    1
    57    29    31    1
    58    29    48    1
    59    30    49    1
    60    30    50    1
    61    31    32    1
    62    31    51    1
    63    32    33    1
    64    32    52    1
    65    33    34    1
    66    33    53    1
    67    34    59    1
    68    34    60    1
