@<TRIPOS>MOLECULE
sophorose
 45 45 0 0 0
SMALL
GASTEIGER

@<TRIPOS>ATOM
      1 O           2.3267   -0.8786    0.1482 O.3     1  UNL1       -0.3405
      2 O           0.0756   -0.6950    0.7336 O.3     1  UNL1       -0.3355
      3 O           3.0048    3.0816    0.9991 O.3     1  UNL1       -0.3864
      4 O           4.9057    1.6099   -0.6062 O.3     1  UNL1       -0.3865
      5 O           0.2661    2.1185    0.4966 O.3     1  UNL1       -0.3841
      6 O          -2.4506   -1.5116   -1.7717 O.3     1  UNL1       -0.3861
      7 O           4.1469   -2.5248   -1.0899 O.3     1  UNL1       -0.3924
      8 O          -3.4255   -1.1722    0.9289 O.3     1  UNL1       -0.3865
      9 O          -3.4249    1.7765   -1.1936 O.3     1  UNL1       -0.3869
     10 O          -1.0114   -2.8337    1.8858 O.2     1  UNL1       -0.2982
     11 O          -6.0486    1.8248   -0.3494 O.3     1  UNL1       -0.3924
     12 C           2.6524    1.9749    0.1674 C.3     1  UNL1        0.1141
     13 C           3.8409    1.0141    0.1302 C.3     1  UNL1        0.1119
     14 C           1.4060    1.2918    0.7305 C.3     1  UNL1        0.1341
     15 C           3.4484   -0.3099   -0.5297 C.3     1  UNL1        0.1130
     16 C           1.1624   -0.0604    0.0605 C.3     1  UNL1        0.1888
     17 C          -0.6523   -1.5488   -0.1427 C.3     1  UNL1        0.1447
     18 C           4.5837   -1.3272   -0.4736 C.3     1  UNL1        0.0730
     19 C          -1.7674   -0.7189   -0.7930 C.3     1  UNL1        0.1162
     20 C          -2.8360   -0.1301    0.1442 C.3     1  UNL1        0.1118
     21 C          -3.9818    0.6213   -0.5497 C.3     1  UNL1        0.1065
     22 C          -1.1568   -2.7218    0.6724 C.2     1  UNL1        0.1516
     23 C          -5.0642    1.1196    0.4019 C.3     1  UNL1        0.0727
     24 H           2.4526    2.3872   -0.8293 H       1  UNL1        0.0648
     25 H           4.1950    0.8479    1.1560 H       1  UNL1        0.0647
     26 H           1.4950    1.1747    1.8171 H       1  UNL1        0.0671
     27 H           3.1811   -0.1584   -1.5844 H       1  UNL1        0.0647
     28 H           0.9118    0.0996   -0.9971 H       1  UNL1        0.0938
     29 H           0.0008   -1.9921   -0.9065 H       1  UNL1        0.0701
     30 H           4.8601   -1.5638    0.5593 H       1  UNL1        0.0584
     31 H           5.4727   -0.9798   -1.0065 H       1  UNL1        0.0584
     32 H          -1.3158    0.1144   -1.3424 H       1  UNL1        0.0650
     33 H          -2.3348    0.5469    0.8466 H       1  UNL1        0.0647
     34 H           3.8071    3.4837    0.6242 H       1  UNL1        0.2100
     35 H           5.7163    1.1089   -0.4155 H       1  UNL1        0.2100
     36 H           0.1653    2.2292   -0.4643 H       1  UNL1        0.2101
     37 H          -4.4480    0.0081   -1.3286 H       1  UNL1        0.0643
     38 H          -1.6694   -3.5128    0.0986 H       1  UNL1        0.1055
     39 H          -5.5584    0.3008    0.9329 H       1  UNL1        0.0584
     40 H          -4.6546    1.8200    1.1367 H       1  UNL1        0.0584
     41 H          -2.8844   -2.2527   -1.3180 H       1  UNL1        0.2100
     42 H           3.3546   -2.8284   -0.6145 H       1  UNL1        0.2095
     43 H          -3.9626   -1.7267    0.3381 H       1  UNL1        0.2100
     44 H          -3.0118    2.3307   -0.5094 H       1  UNL1        0.2100
     45 H          -6.4380    1.1978   -0.9825 H       1  UNL1        0.2095
@<TRIPOS>BOND
     1     1    15    1
     2     1    16    1
     3     2    16    1
     4     2    17    1
     5     3    12    1
     6     3    34    1
     7     4    13    1
     8     4    35    1
     9     5    14    1
    10     5    36    1
    11     6    19    1
    12     6    41    1
    13     7    18    1
    14     7    42    1
    15     8    20    1
    16     8    43    1
    17     9    21    1
    18     9    44    1
    19    10    22    2
    20    11    23    1
    21    11    45    1
    22    12    13    1
    23    12    14    1
    24    12    24    1
    25    13    15    1
    26    13    25    1
    27    14    16    1
    28    14    26    1
    29    15    18    1
    30    15    27    1
    31    16    28    1
    32    17    19    1
    33    17    22    1
    34    17    29    1
    35    18    30    1
    36    18    31    1
    37    19    20    1
    38    19    32    1
    39    20    21    1
    40    20    33    1
    41    21    23    1
    42    21    37    1
    43    22    38    1
    44    23    39    1
    45    23    40    1
