@<TRIPOS>MOLECULE
stachyose
 87 90 0 0 0
SMALL
GASTEIGER

@<TRIPOS>ATOM
      1 O           2.4731   -2.2525    0.1912 O.3     1  UNL1       -0.3125
      2 O           2.3617   -0.0442    0.9806 O.3     1  UNL1       -0.3362
      3 O           2.0254   -0.8513   -1.6318 O.3     1  UNL1       -0.3404
      4 O          -1.3131    2.4505   -0.4877 O.3     1  UNL1       -0.3405
      5 O           0.6495    1.7648   -1.6188 O.3     1  UNL1       -0.3460
      6 O           4.2479   -2.8754    2.1742 O.3     1  UNL1       -0.3837
      7 O           5.7681   -0.1859    2.0171 O.3     1  UNL1       -0.3864
      8 O           2.1907   -3.6991   -2.1467 O.3     1  UNL1       -0.3841
      9 O           1.5542   -1.9593   -4.3595 O.3     1  UNL1       -0.3865
     10 O          -1.2009   -2.4016   -2.0379 O.3     1  UNL1       -0.3864
     11 O          -2.2188    0.4659    1.4885 O.3     1  UNL1       -0.3460
     12 O          -4.5292    0.5443    0.9819 O.3     1  UNL1       -0.3405
     13 O           1.3797   -3.1541    2.6314 O.3     1  UNL1       -0.3896
     14 O          -1.1100    4.5735    1.4672 O.3     1  UNL1       -0.3865
     15 O           1.3986    4.4017   -2.0023 O.3     1  UNL1       -0.3841
     16 O           1.4725    5.2783    0.7367 O.3     1  UNL1       -0.3864
     17 O           5.0499    2.0490   -0.2511 O.3     1  UNL1       -0.3924
     18 O          -2.5834   -1.8341    2.9846 O.3     1  UNL1       -0.3841
     19 O          -3.7379   -3.5333    0.9706 O.3     1  UNL1       -0.3864
     20 O          -5.8615   -1.9099    0.2262 O.3     1  UNL1       -0.3865
     21 O          -5.0663    1.8489   -1.6015 O.3     1  UNL1       -0.3924
     22 C           2.4374   -1.4310    1.3593 C.3     1  UNL1        0.2252
     23 C           3.7620   -1.5496    2.1062 C.3     1  UNL1        0.1395
     24 C           4.6504   -0.6445    1.2795 C.3     1  UNL1        0.1145
     25 C           1.4912   -1.8456   -0.7600 C.3     1  UNL1        0.1912
     26 C           3.6962    0.5027    0.9669 C.3     1  UNL1        0.1134
     27 C           1.1096   -0.3571   -2.6175 C.3     1  UNL1        0.1134
     28 C           1.0496   -3.0755   -1.5559 C.3     1  UNL1        0.1342
     29 C           0.5298   -1.4959   -3.4742 C.3     1  UNL1        0.1119
     30 C           0.0496   -2.6985   -2.6513 C.3     1  UNL1        0.1141
     31 C           1.2379   -1.8066    2.2153 C.3     1  UNL1        0.1009
     32 C          -0.7908    2.2675    0.8376 C.3     1  UNL1        0.1134
     33 C           0.0460    0.5372   -1.9836 C.3     1  UNL1        0.0796
     34 C          -0.3179    2.8007   -1.4530 C.3     1  UNL1        0.1880
     35 C          -0.1178    3.5523    1.3380 C.3     1  UNL1        0.1119
     36 C           0.3724    4.1091   -1.0597 C.3     1  UNL1        0.1341
     37 C           0.9587    4.0073    0.3485 C.3     1  UNL1        0.1141
     38 C           3.9649    1.1456   -0.3828 C.3     1  UNL1        0.0730
     39 C          -1.9532    1.8366    1.7257 C.3     1  UNL1        0.0796
     40 C          -3.5333    0.1023    1.9081 C.3     1  UNL1        0.1880
     41 C          -3.6231   -1.4127    2.1079 C.3     1  UNL1        0.1341
     42 C          -3.5153   -2.1407    0.7680 C.3     1  UNL1        0.1141
     43 C          -4.5432   -1.5837   -0.2209 C.3     1  UNL1        0.1119
     44 C          -4.4157   -0.0577   -0.3171 C.3     1  UNL1        0.1130
     45 C          -5.4958    0.5613   -1.1979 C.3     1  UNL1        0.0730
     46 H           3.6865   -1.1612    3.1300 H       1  UNL1        0.0675
     47 H           5.0185   -1.1583    0.3845 H       1  UNL1        0.0648
     48 H           0.6084   -1.4473   -0.2588 H       1  UNL1        0.0939
     49 H           3.7384    1.2700    1.7503 H       1  UNL1        0.0647
     50 H           1.7271    0.2768   -3.2669 H       1  UNL1        0.0647
     51 H           0.6108   -3.8040   -0.8633 H       1  UNL1        0.0671
     52 H          -0.2849   -1.1175   -4.1023 H       1  UNL1        0.0647
     53 H          -0.1007   -3.5590   -3.3147 H       1  UNL1        0.0648
     54 H           1.1878   -1.1666    3.1038 H       1  UNL1        0.0612
     55 H           0.2784   -1.7034    1.7034 H       1  UNL1        0.0612
     56 H          -0.0505    1.4585    0.8120 H       1  UNL1        0.0647
     57 H          -0.4256    0.0893   -1.1073 H       1  UNL1        0.0587
     58 H          -0.7376    0.7271   -2.7279 H       1  UNL1        0.0587
     59 H          -0.8204    2.9512   -2.4164 H       1  UNL1        0.0937
     60 H           0.3191    3.4089    2.3320 H       1  UNL1        0.0647
     61 H          -0.3418    4.9404   -1.0959 H       1  UNL1        0.0671
     62 H           1.8018    3.3088    0.3550 H       1  UNL1        0.0648
     63 H           3.0944    1.7059   -0.7301 H       1  UNL1        0.0584
     64 H           4.2147    0.4049   -1.1483 H       1  UNL1        0.0584
     65 H          -2.8391    2.4447    1.5050 H       1  UNL1        0.0587
     66 H          -1.6955    1.9496    2.7846 H       1  UNL1        0.0587
     67 H          -3.7368    0.5822    2.8741 H       1  UNL1        0.0937
     68 H          -4.5730   -1.6764    2.5881 H       1  UNL1        0.0671
     69 H          -2.4992   -2.0326    0.3710 H       1  UNL1        0.0648
     70 H          -4.4168   -2.0540   -1.2019 H       1  UNL1        0.0647
     71 H           3.5816   -3.4079    2.6406 H       1  UNL1        0.2101
     72 H          -3.4316    0.2020   -0.7290 H       1  UNL1        0.0647
     73 H           5.4473    0.2435    2.8282 H       1  UNL1        0.2100
     74 H           1.8812   -4.4938   -2.6138 H       1  UNL1        0.2101
     75 H           1.8029   -1.2163   -4.9354 H       1  UNL1        0.2100
     76 H          -1.8302   -2.1780   -2.7445 H       1  UNL1        0.2100
     77 H           0.6149   -3.3622    3.1945 H       1  UNL1        0.2096
     78 H          -1.6446    4.5864    0.6556 H       1  UNL1        0.2100
     79 H           0.9844    4.4536   -2.8806 H       1  UNL1        0.2101
     80 H           1.8213    5.1887    1.6400 H       1  UNL1        0.2100
     81 H          -6.4442    0.6684   -0.6616 H       1  UNL1        0.0584
     82 H          -5.6520   -0.0338   -2.1032 H       1  UNL1        0.0584
     83 H           5.1947    2.4517   -1.1243 H       1  UNL1        0.2095
     84 H          -2.6848   -1.3436    3.8181 H       1  UNL1        0.2101
     85 H          -3.6761   -3.9678    0.1028 H       1  UNL1        0.2100
     86 H          -6.0721   -1.3518    0.9935 H       1  UNL1        0.2100
     87 H          -5.7660    2.2218   -2.1645 H       1  UNL1        0.2095
@<TRIPOS>BOND
     1     1    22    1
     2     1    25    1
     3     2    22    1
     4     2    26    1
     5     3    25    1
     6     3    27    1
     7     4    32    1
     8     4    34    1
     9     5    33    1
    10     5    34    1
    11     6    23    1
    12     6    71    1
    13     7    24    1
    14     7    73    1
    15     8    28    1
    16     8    74    1
    17     9    29    1
    18     9    75    1
    19    10    30    1
    20    10    76    1
    21    11    39    1
    22    11    40    1
    23    12    40    1
    24    12    44    1
    25    13    31    1
    26    13    77    1
    27    14    35    1
    28    14    78    1
    29    15    36    1
    30    15    79    1
    31    16    37    1
    32    16    80    1
    33    17    38    1
    34    17    83    1
    35    18    41    1
    36    18    84    1
    37    19    42    1
    38    19    85    1
    39    20    43    1
    40    20    86    1
    41    21    45    1
    42    21    87    1
    43    22    23    1
    44    22    31    1
    45    23    24    1
    46    23    46    1
    47    24    26    1
    48    24    47    1
    49    25    28    1
    50    25    48    1
    51    26    38    1
    52    26    49    1
    53    27    29    1
    54    27    33    1
    55    27    50    1
    56    28    30    1
    57    28    51    1
    58    29    30    1
    59    29    52    1
    60    30    53    1
    61    31    54    1
    62    31    55    1
    63    32    35    1
    64    32    39    1
    65    32    56    1
    66    33    57    1
    67    33    58    1
    68    34    36    1
    69    34    59    1
    70    35    37    1
    71    35    60    1
    72    36    37    1
    73    36    61    1
    74    37    62    1
    75    38    63    1
    76    38    64    1
    77    39    65    1
    78    39    66    1
    79    40    41    1
    80    40    67    1
    81    41    42    1
    82    41    68    1
    83    42    43    1
    84    42    69    1
    85    43    44    1
    86    43    70    1
    87    44    45    1
    88    44    72    1
    89    45    81    1
    90    45    82    1
