@<TRIPOS>MOLECULE
sucrose
 45 46 0 0 0
SMALL
GASTEIGER

@<TRIPOS>ATOM
      1 O          -1.4680    0.4385   -0.9184 O.3     1  UNL1       -0.3362
      2 O          -0.6033   -0.8919    0.8122 O.3     1  UNL1       -0.3125
      3 O           0.9285    0.4834   -0.3053 O.3     1  UNL1       -0.3404
      4 O          -3.0702   -2.0054    1.1933 O.3     1  UNL1       -0.3837
      5 O          -4.6200    0.6319    0.7326 O.3     1  UNL1       -0.3864
      6 O           1.2231    0.2156    2.5658 O.3     1  UNL1       -0.3841
      7 O           3.6108   -1.7286    0.6379 O.3     1  UNL1       -0.3864
      8 O           3.1500    1.8347    1.1537 O.3     1  UNL1       -0.3865
      9 O          -1.9582   -1.8480   -2.4300 O.3     1  UNL1       -0.3896
     10 O          -1.3845    3.2450   -0.8933 O.3     1  UNL1       -0.3924
     11 O           3.8369    0.2057   -2.5044 O.3     1  UNL1       -0.3924
     12 C          -1.4947   -0.8632   -0.3037 C.3     1  UNL1        0.2252
     13 C          -2.9301   -1.0229    0.1866 C.3     1  UNL1        0.1395
     14 C          -3.2290    0.3737    0.6887 C.3     1  UNL1        0.1145
     15 C          -2.5505    1.2243   -0.3791 C.3     1  UNL1        0.1134
     16 C           0.7534   -0.7453    0.3971 C.3     1  UNL1        0.1912
     17 C           1.6462   -0.7853    1.6390 C.3     1  UNL1        0.1342
     18 C           3.1147   -0.5553    1.2746 C.3     1  UNL1        0.1141
     19 C           3.2915    0.6577    0.3521 C.3     1  UNL1        0.1119
     20 C           2.2579    0.7203   -0.7858 C.3     1  UNL1        0.1130
     21 C          -1.0903   -1.9271   -1.3122 C.3     1  UNL1        0.1009
     22 C          -2.0027    2.5323    0.1653 C.3     1  UNL1        0.0730
     23 C           2.5886   -0.1903   -1.9666 C.3     1  UNL1        0.0730
     24 H          -3.6217   -1.2732   -0.6273 H       1  UNL1        0.0675
     25 H          -2.8148    0.5301    1.6917 H       1  UNL1        0.0648
     26 H          -3.2289    1.4361   -1.2150 H       1  UNL1        0.0647
     27 H           1.0588   -1.5992   -0.2109 H       1  UNL1        0.0939
     28 H           1.5257   -1.7530    2.1409 H       1  UNL1        0.0671
     29 H           3.6908   -0.4029    2.1956 H       1  UNL1        0.0648
     30 H           4.3100    0.6750   -0.0511 H       1  UNL1        0.0647
     31 H           2.2441    1.7505   -1.1644 H       1  UNL1        0.0647
     32 H          -1.1311   -2.9324   -0.8803 H       1  UNL1        0.0612
     33 H          -0.0995   -1.7686   -1.7400 H       1  UNL1        0.0612
     34 H          -1.2448    2.3605    0.9369 H       1  UNL1        0.0584
     35 H          -2.7990    3.1543    0.5841 H       1  UNL1        0.0584
     36 H           1.8210   -0.1132   -2.7443 H       1  UNL1        0.0584
     37 H           2.6532   -1.2446   -1.6891 H       1  UNL1        0.0584
     38 H          -3.9800   -1.9485    1.5318 H       1  UNL1        0.2101
     39 H          -4.7364    1.5664    0.9746 H       1  UNL1        0.2100
     40 H           0.2787    0.0666    2.7433 H       1  UNL1        0.2101
     41 H           4.5490   -1.5769    0.4327 H       1  UNL1        0.2100
     42 H           3.3427    2.6011    0.5871 H       1  UNL1        0.2100
     43 H          -1.6962   -2.5508   -3.0488 H       1  UNL1        0.2096
     44 H          -0.6790    2.6806   -1.2535 H       1  UNL1        0.2095
     45 H           3.7489    1.1234   -2.8135 H       1  UNL1        0.2095
@<TRIPOS>BOND
     1     1    12    1
     2     1    15    1
     3     2    12    1
     4     2    16    1
     5     3    16    1
     6     3    20    1
     7     4    13    1
     8     4    38    1
     9     5    14    1
    10     5    39    1
    11     6    17    1
    12     6    40    1
    13     7    18    1
    14     7    41    1
    15     8    19    1
    16     8    42    1
    17     9    21    1
    18     9    43    1
    19    10    22    1
    20    10    44    1
    21    11    23    1
    22    11    45    1
    23    12    13    1
    24    12    21    1
    25    13    14    1
    26    13    24    1
    27    14    15    1
    28    14    25    1
    29    15    22    1
    30    15    26    1
    31    16    17    1
    32    16    27    1
    33    17    18    1
    34    17    28    1
    35    18    19    1
    36    18    29    1
    37    19    20    1
    38    19    30    1
    39    20    23    1
    40    20    31    1
    41    21    32    1
    42    21    33    1
    43    22    34    1
    44    22    35    1
    45    23    36    1
    46    23    37    1
