@<TRIPOS>MOLECULE
trehalose
 45 46 0 0 0
SMALL
GASTEIGER

@<TRIPOS>ATOM
      1 O           0.0000    0.0000    0.4587 O.3     1  UNL1       -0.3174
      2 O           1.6357   -0.0523   -1.2565 O.3     1  UNL1       -0.3404
      3 O          -1.6357    0.0523   -1.2565 O.3     1  UNL1       -0.3404
      4 O           0.9568   -2.4452    1.4490 O.3     1  UNL1       -0.3841
      5 O          -0.9568    2.4452    1.4490 O.3     1  UNL1       -0.3841
      6 O           3.7799   -1.8878    1.7575 O.3     1  UNL1       -0.3864
      7 O          -3.7798    1.8878    1.7575 O.3     1  UNL1       -0.3864
      8 O           4.4455    0.7947    0.9743 O.3     1  UNL1       -0.3865
      9 O          -4.4455   -0.7946    0.9743 O.3     1  UNL1       -0.3865
     10 O           2.3351    2.3158   -2.4208 O.3     1  UNL1       -0.3924
     11 O          -2.3352   -2.3158   -2.4207 O.3     1  UNL1       -0.3924
     12 C           0.8461   -0.8196   -0.3455 C.3     1  UNL1        0.1909
     13 C          -0.8461    0.8196   -0.3455 C.3     1  UNL1        0.1909
     14 C           1.7369   -1.7413    0.4891 C.3     1  UNL1        0.1342
     15 C          -1.7369    1.7413    0.4891 C.3     1  UNL1        0.1342
     16 C           2.8395   -0.9637    1.2050 C.3     1  UNL1        0.1141
     17 C          -2.8396    0.9637    1.2050 C.3     1  UNL1        0.1141
     18 C           3.5809   -0.0542    0.2232 C.3     1  UNL1        0.1119
     19 C          -3.5808    0.0542    0.2231 C.3     1  UNL1        0.1119
     20 C           2.5989    0.7846   -0.6060 C.3     1  UNL1        0.1130
     21 C          -2.5989   -0.7846   -0.6059 C.3     1  UNL1        0.1130
     22 C           3.3065    1.5817   -1.6985 C.3     1  UNL1        0.0730
     23 C          -3.3065   -1.5817   -1.6985 C.3     1  UNL1        0.0730
     24 H           0.2085   -1.4760   -0.9485 H       1  UNL1        0.0938
     25 H          -0.2087    1.4761   -0.9483 H       1  UNL1        0.0938
     26 H           2.2028   -2.4901   -0.1634 H       1  UNL1        0.0671
     27 H          -2.2028    2.4902   -0.1634 H       1  UNL1        0.0671
     28 H           2.4291   -0.3915    2.0461 H       1  UNL1        0.0648
     29 H          -2.4291    0.3914    2.0461 H       1  UNL1        0.0648
     30 H           4.2070   -0.6632   -0.4416 H       1  UNL1        0.0647
     31 H          -4.2070    0.6633   -0.4416 H       1  UNL1        0.0647
     32 H           2.0701    1.4994    0.0383 H       1  UNL1        0.0647
     33 H          -2.0702   -1.4995    0.0384 H       1  UNL1        0.0647
     34 H           3.8216    0.9226   -2.4052 H       1  UNL1        0.0584
     35 H           4.0321    2.2842   -1.2788 H       1  UNL1        0.0584
     36 H          -3.8116   -0.9128   -2.4033 H       1  UNL1        0.0584
     37 H          -4.0359   -2.2791   -1.2756 H       1  UNL1        0.0584
     38 H           0.4957   -1.7866    1.9964 H       1  UNL1        0.2101
     39 H          -0.4957    1.7866    1.9964 H       1  UNL1        0.2101
     40 H           4.3946   -1.3841    2.3171 H       1  UNL1        0.2100
     41 H          -4.3945    1.3841    2.3170 H       1  UNL1        0.2100
     42 H           5.1421    0.2392    1.3624 H       1  UNL1        0.2100
     43 H          -5.1422   -0.2391    1.3623 H       1  UNL1        0.2100
     44 H           1.6976    1.6795   -2.7873 H       1  UNL1        0.2095
     45 H          -2.8058   -2.8124   -3.1118 H       1  UNL1        0.2095
@<TRIPOS>BOND
     1     1    12    1
     2     1    13    1
     3     2    12    1
     4     2    20    1
     5     3    13    1
     6     3    21    1
     7     4    14    1
     8     4    38    1
     9     5    15    1
    10     5    39    1
    11     6    16    1
    12     6    40    1
    13     7    17    1
    14     7    41    1
    15     8    18    1
    16     8    42    1
    17     9    19    1
    18     9    43    1
    19    10    22    1
    20    10    44    1
    21    11    23    1
    22    11    45    1
    23    12    14    1
    24    12    24    1
    25    13    15    1
    26    13    25    1
    27    14    16    1
    28    14    26    1
    29    15    17    1
    30    15    27    1
    31    16    18    1
    32    16    28    1
    33    17    19    1
    34    17    29    1
    35    18    20    1
    36    18    30    1
    37    19    21    1
    38    19    31    1
    39    20    22    1
    40    20    32    1
    41    21    23    1
    42    21    33    1
    43    22    34    1
    44    22    35    1
    45    23    36    1
    46    23    37    1
