@<TRIPOS>MOLECULE
turanose
 45 45 0 0 0
SMALL
GASTEIGER

@<TRIPOS>ATOM
      1 O          -1.5641    0.1770    1.3528 O.3     1  UNL1       -0.3405
      2 O           0.1520   -0.4069   -0.1751 O.3     1  UNL1       -0.3351
      3 O          -3.5958   -2.6429   -0.8766 O.3     1  UNL1       -0.3864
      4 O          -4.2487    0.1389   -1.1729 O.3     1  UNL1       -0.3865
      5 O          -0.8012   -3.0454   -0.2409 O.3     1  UNL1       -0.3841
      6 O          -2.2746    2.8074    1.5244 O.3     1  UNL1       -0.3924
      7 O           3.0261    1.0411    1.5537 O.3     1  UNL1       -0.3861
      8 O           2.3318   -1.8957   -0.5388 O.3     1  UNL1       -0.3869
      9 O           1.3066    1.2307   -2.0107 O.2     1  UNL1       -0.2921
     10 O           5.0861   -2.1469   -0.2323 O.3     1  UNL1       -0.3924
     11 O           1.5715    3.8588   -1.6593 O.3     1  UNL1       -0.3874
     12 C          -2.6660   -1.5795   -0.6567 C.3     1  UNL1        0.1141
     13 C          -3.4364   -0.3722   -0.1187 C.3     1  UNL1        0.1119
     14 C          -1.6131   -2.0372    0.3507 C.3     1  UNL1        0.1341
     15 C          -2.4798    0.7141    0.3915 C.3     1  UNL1        0.1130
     16 C          -0.7463   -0.8720    0.8306 C.3     1  UNL1        0.1888
     17 C           0.9731    0.6495    0.3074 C.3     1  UNL1        0.1499
     18 C          -3.2238    1.8579    1.0754 C.3     1  UNL1        0.0730
     19 C           2.2305    0.0322    0.9382 C.3     1  UNL1        0.1163
     20 C           3.0994   -0.8153   -0.0097 C.3     1  UNL1        0.1068
     21 C           1.2245    1.6205   -0.8450 C.2     1  UNL1        0.1896
     22 C           4.3135   -1.4064    0.7074 C.3     1  UNL1        0.0727
     23 C           1.3347    3.0922   -0.4955 C.3     1  UNL1        0.1049
     24 H          -2.2038   -1.3624   -1.6275 H       1  UNL1        0.0648
     25 H          -4.1091   -0.6979    0.6841 H       1  UNL1        0.0647
     26 H          -2.1284   -2.4903    1.2073 H       1  UNL1        0.0671
     27 H          -1.9048    1.1423   -0.4399 H       1  UNL1        0.0647
     28 H          -0.1469   -1.2511    1.6655 H       1  UNL1        0.0938
     29 H           0.4584    1.2467    1.0702 H       1  UNL1        0.0704
     30 H          -3.9156    2.3555    0.3898 H       1  UNL1        0.0584
     31 H          -3.7838    1.5060    1.9482 H       1  UNL1        0.0584
     32 H           1.8978   -0.6277    1.7487 H       1  UNL1        0.0650
     33 H           3.4493   -0.2152   -0.8568 H       1  UNL1        0.0643
     34 H          -4.2651   -2.3181   -1.5030 H       1  UNL1        0.2100
     35 H          -3.6597    0.4578   -1.8778 H       1  UNL1        0.2100
     36 H          -0.1513   -3.3259    0.4257 H       1  UNL1        0.2101
     37 H           4.0064   -2.0944    1.5019 H       1  UNL1        0.0584
     38 H           4.9578   -0.6288    1.1266 H       1  UNL1        0.0584
     39 H          -1.6641    2.3509    2.1282 H       1  UNL1        0.2095
     40 H           0.3933    3.4242   -0.0502 H       1  UNL1        0.0637
     41 H           2.1546    3.2515    0.2088 H       1  UNL1        0.0637
     42 H           3.5719    0.6178    2.2375 H       1  UNL1        0.2100
     43 H           2.0148   -2.4309    0.2087 H       1  UNL1        0.2100
     44 H           5.8458   -2.5149    0.2506 H       1  UNL1        0.2095
     45 H           2.4474    3.6090   -2.0003 H       1  UNL1        0.2100
@<TRIPOS>BOND
     1     1    15    1
     2     1    16    1
     3     2    16    1
     4     2    17    1
     5     3    12    1
     6     3    34    1
     7     4    13    1
     8     4    35    1
     9     5    14    1
    10     5    36    1
    11     6    18    1
    12     6    39    1
    13     7    19    1
    14     7    42    1
    15     8    20    1
    16     8    43    1
    17     9    21    2
    18    10    22    1
    19    10    44    1
    20    11    23    1
    21    11    45    1
    22    12    13    1
    23    12    14    1
    24    12    24    1
    25    13    15    1
    26    13    25    1
    27    14    16    1
    28    14    26    1
    29    15    18    1
    30    15    27    1
    31    16    28    1
    32    17    19    1
    33    17    21    1
    34    17    29    1
    35    18    30    1
    36    18    31    1
    37    19    20    1
    38    19    32    1
    39    20    22    1
    40    20    33    1
    41    21    23    1
    42    22    37    1
    43    22    38    1
    44    23    40    1
    45    23    41    1
