@<TRIPOS>MOLECULE
9257
 8 8 0 0 0
SMALL
GASTEIGER

@<TRIPOS>ATOM
      1 N           0.5509    0.9639    0.0000 N.ar    1  UNL1       -0.2655
      2 N           1.1852   -0.2183    0.0001 N.ar    1  UNL1       -0.1611
      3 N          -1.0870   -0.4827    0.0002 N.ar    1  UNL1       -0.2231
      4 C          -0.7991    0.7981   -0.0001 C.ar    1  UNL1        0.1113
      5 C           0.1500   -1.0609   -0.0002 C.ar    1  UNL1        0.1377
      6 H           1.0940    1.8191    0.0001 H       1  UNL1        0.1900
      7 H          -1.4981    1.6215   -0.0002 H       1  UNL1        0.1041
      8 H           0.3019   -2.1300   -0.0002 H       1  UNL1        0.1065
@<TRIPOS>BOND
     1     1     2   ar
     2     1     4   ar
     3     1     6    1
     4     2     5   ar
     5     3     4   ar
     6     3     5   ar
     7     4     7    1
     8     5     8    1
