@<TRIPOS>MOLECULE
67519
 7 7 0 0 0
SMALL
GASTEIGER

@<TRIPOS>ATOM
      1 N          -0.2582   -1.0357    0.0001 N.ar    1  UNL1       -0.1767
      2 N          -1.2111   -0.0931   -0.0001 N.ar    1  UNL1       -0.1418
      3 N           1.0075   -0.5949   -0.0001 N.ar    1  UNL1       -0.0491
      4 N           0.8993    0.7281    0.0001 N.ar    1  UNL1       -0.1166
      5 C          -0.4375    0.9956    0.0000 C.ar    1  UNL1        0.1615
      6 H          -0.4817   -2.0252   -0.0002 H       1  UNL1        0.2143
      7 H          -0.8539    1.9910    0.0000 H       1  UNL1        0.1085
@<TRIPOS>BOND
     1     1     2   ar
     2     1     3   ar
     3     1     6    1
     4     2     5   ar
     5     3     4   ar
     6     4     5   ar
     7     5     7    1
