@<TRIPOS>MOLECULE
7220
 14 15 0 0 0
SMALL
GASTEIGER

@<TRIPOS>ATOM
      1 N           1.5665   -1.1527    0.0000 N.ar    1  UNL1       -0.1548
      2 N           1.5663    1.1528    0.0001 N.ar    1  UNL1       -0.1548
      3 N           2.2405    0.0001   -0.0002 N.ar    1  UNL1       -0.1956
      4 C           0.2899   -0.7349    0.0001 C.ar    1  UNL1        0.1125
      5 C           0.2898    0.7350    0.0001 C.ar    1  UNL1        0.1125
      6 C          -0.9008   -1.4850    0.0000 C.ar    1  UNL1       -0.0324
      7 C          -0.9012    1.4849    0.0000 C.ar    1  UNL1       -0.0324
      8 C          -2.0754   -0.7103    0.0000 C.ar    1  UNL1       -0.0596
      9 C          -2.0756    0.7101   -0.0001 C.ar    1  UNL1       -0.0596
     10 H          -0.9229   -2.5673    0.0000 H       1  UNL1        0.0640
     11 H          -0.9233    2.5673   -0.0001 H       1  UNL1        0.0640
     12 H          -3.0355   -1.2248   -0.0001 H       1  UNL1        0.0618
     13 H          -3.0357    1.2244   -0.0001 H       1  UNL1        0.0618
     14 H           3.2540    0.0002   -0.0003 H       1  UNL1        0.2125
@<TRIPOS>BOND
     1     1     3   ar
     2     1     4   ar
     3     2     3   ar
     4     2     5   ar
     5     3    14    1
     6     4     5   ar
     7     4     6   ar
     8     5     7   ar
     9     6     8   ar
    10     6    10    1
    11     7     9   ar
    12     7    11    1
    13     8     9   ar
    14     8    12    1
    15     9    13    1
