@<TRIPOS>MOLECULE
795
 9 9 0 0 0
SMALL
GASTEIGER

@<TRIPOS>ATOM
      1 N           0.7451   -0.8866    0.0000 N.ar    1  UNL1       -0.3508
      2 N          -1.1524    0.2675    0.0002 N.ar    1  UNL1       -0.2443
      3 C           1.1083    0.4307    0.0001 C.ar    1  UNL1        0.0210
      4 C          -0.6213   -0.9350   -0.0001 C.ar    1  UNL1        0.0933
      5 C          -0.0796    1.1234   -0.0002 C.ar    1  UNL1        0.0452
      6 H           1.3716   -1.6804    0.0000 H       1  UNL1        0.1662
      7 H           2.1427    0.7424    0.0003 H       1  UNL1        0.0822
      8 H          -1.1627   -1.8702   -0.0002 H       1  UNL1        0.1026
      9 H          -0.2167    2.1949   -0.0003 H       1  UNL1        0.0845
@<TRIPOS>BOND
     1     1     3   ar
     2     1     4   ar
     3     1     6    1
     4     2     4   ar
     5     2     5   ar
     6     3     5   ar
     7     3     7    1
     8     4     8    1
     9     5     9    1
