@<TRIPOS>MOLECULE
2771670
 14 15 0 0 0
SMALL
GASTEIGER

@<TRIPOS>ATOM
      1 N           0.2974    0.7175   -0.0001 N.ar    1  UNL1       -0.3040
      2 N           1.4965   -1.1666    0.0000 N.ar    1  UNL1       -0.2346
      3 N          -2.1034   -0.6975    0.0000 N.ar    1  UNL1       -0.2582
      4 C           0.2904   -0.6544    0.0000 C.ar    1  UNL1        0.1558
      5 C           1.6049    1.1120    0.0000 C.ar    1  UNL1        0.0293
      6 C          -0.9000    1.4085   -0.0001 C.ar    1  UNL1        0.0293
      7 C          -0.9690   -1.3447    0.0000 C.ar    1  UNL1        0.0703
      8 C           2.3241   -0.0661    0.0001 C.ar    1  UNL1        0.0465
      9 C          -2.0409    0.6914    0.0001 C.ar    1  UNL1        0.0442
     10 H           1.9037    2.1511    0.0001 H       1  UNL1        0.0829
     11 H          -0.8733    2.4906    0.0000 H       1  UNL1        0.0829
     12 H          -0.9756   -2.4463   -0.0001 H       1  UNL1        0.0867
     13 H           3.3988   -0.1765    0.0001 H       1  UNL1        0.0845
     14 H          -2.9995    1.1991    0.0002 H       1  UNL1        0.0844
@<TRIPOS>BOND
     1     1     4   ar
     2     1     5   ar
     3     1     6   ar
     4     2     4   ar
     5     2     8   ar
     6     3     7   ar
     7     3     9   ar
     8     4     7   ar
     9     5     8   ar
    10     5    10    1
    11     6     9   ar
    12     6    11    1
    13     7    12    1
    14     8    13    1
    15     9    14    1
