@<TRIPOS>MOLECULE
11966289
 20 22 0 0 0
SMALL
GASTEIGER

@<TRIPOS>ATOM
      1 N          -2.9784   -0.2592    0.0002 N.ar    1  UNL1       -0.3432
      2 N          -1.7627    1.6006   -0.0003 N.ar    1  UNL1       -0.2352
      3 N           0.2708   -2.0058    0.0001 N.ar    1  UNL1       -0.2528
      4 C           0.4797    0.4078   -0.0001 C.ar    1  UNL1        0.0278
      5 C          -0.9300    0.5024   -0.0002 C.ar    1  UNL1        0.0994
      6 C          -1.6725   -0.6716    0.0000 C.ar    1  UNL1        0.0850
      7 C           1.0319   -0.8919   -0.0003 C.ar    1  UNL1        0.0731
      8 C           1.2921    1.5580    0.0002 C.ar    1  UNL1       -0.0505
      9 C          -1.0833   -1.9216    0.0002 C.ar    1  UNL1        0.0537
     10 C           2.4198   -0.9902   -0.0002 C.ar    1  UNL1       -0.0357
     11 C          -2.9811    1.1078    0.0000 C.ar    1  UNL1        0.0945
     12 C           2.6754    1.4182    0.0004 C.ar    1  UNL1       -0.0610
     13 C           3.2383    0.1454   -0.0001 C.ar    1  UNL1       -0.0597
     14 H           0.8561    2.5534    0.0004 H       1  UNL1        0.0625
     15 H          -3.7939   -0.8572    0.0004 H       1  UNL1        0.1668
     16 H          -1.6387   -2.8496    0.0004 H       1  UNL1        0.0851
     17 H           2.8922   -1.9709   -0.0002 H       1  UNL1        0.0639
     18 H          -3.8981    1.6793    0.0001 H       1  UNL1        0.1027
     19 H           3.3133    2.2968    0.0006 H       1  UNL1        0.0618
     20 H           4.3187    0.0310   -0.0002 H       1  UNL1        0.0618
@<TRIPOS>BOND
     1     1     6   ar
     2     1    11   ar
     3     1    15    1
     4     2     5   ar
     5     2    11   ar
     6     3     7   ar
     7     3     9   ar
     8     4     5   ar
     9     4     7   ar
    10     4     8   ar
    11     5     6   ar
    12     6     9   ar
    13     7    10   ar
    14     8    12   ar
    15     8    14    1
    16     9    16    1
    17    10    13   ar
    18    10    17    1
    19    11    18    1
    20    12    13   ar
    21    12    19    1
    22    13    20    1
