@<TRIPOS>MOLECULE
67504
 14 15 0 0 0
SMALL
GASTEIGER

@<TRIPOS>ATOM
      1 N          -1.5286   -1.1416    0.0002 N.ar    1  UNL1       -0.3431
      2 N          -1.5854    1.0850   -0.0002 N.ar    1  UNL1       -0.2166
      3 N           0.8158    1.4417    0.0000 N.ar    1  UNL1       -0.2345
      4 C          -0.2205   -0.7401   -0.0001 C.ar    1  UNL1        0.0851
      5 C          -0.2844    0.6486   -0.0001 C.ar    1  UNL1        0.1777
      6 C           0.9917   -1.4214   -0.0002 C.ar    1  UNL1       -0.0333
      7 C          -2.3066   -0.0151    0.0002 C.ar    1  UNL1        0.0962
      8 C           2.1306   -0.6203    0.0000 C.ar    1  UNL1       -0.0415
      9 C           1.9875    0.7632    0.0002 C.ar    1  UNL1        0.0301
     10 H          -1.8620   -2.0964    0.0004 H       1  UNL1        0.1668
     11 H           1.0496   -2.5029   -0.0002 H       1  UNL1        0.0640
     12 H          -3.3860   -0.0666    0.0003 H       1  UNL1        0.1027
     13 H           3.1179   -1.0707    0.0001 H       1  UNL1        0.0633
     14 H           2.8711    1.3959    0.0004 H       1  UNL1        0.0830
@<TRIPOS>BOND
     1     1     4   ar
     2     1     7   ar
     3     1    10    1
     4     2     5   ar
     5     2     7   ar
     6     3     5   ar
     7     3     9   ar
     8     4     5   ar
     9     4     6   ar
    10     6     8   ar
    11     6    11    1
    12     7    12    1
    13     8     9   ar
    14     8    13    1
    15     9    14    1
