@<TRIPOS>MOLECULE
78960
 15 16 0 0 0
SMALL
GASTEIGER

@<TRIPOS>ATOM
      1 N           0.2536    0.6858    0.0000 N.ar    1  UNL1       -0.3066
      2 N           1.5753   -1.1187    0.0000 N.ar    1  UNL1       -0.2361
      3 C           0.3246   -0.7048   -0.0001 C.ar    1  UNL1        0.1375
      4 C          -0.9437    1.3962    0.0000 C.ar    1  UNL1        0.0112
      5 C           1.5439    1.1499    0.0002 C.ar    1  UNL1        0.0293
      6 C          -0.9110   -1.4164    0.0001 C.ar    1  UNL1       -0.0188
      7 C          -2.1033    0.7187   -0.0002 C.ar    1  UNL1       -0.0451
      8 C          -2.0731   -0.7351    0.0001 C.ar    1  UNL1       -0.0569
      9 C           2.3338    0.0244   -0.0002 C.ar    1  UNL1        0.0464
     10 H          -0.8940    2.4782    0.0000 H       1  UNL1        0.0813
     11 H           1.7799    2.2052    0.0003 H       1  UNL1        0.0829
     12 H          -0.9011   -2.5006    0.0003 H       1  UNL1        0.0654
     13 H          -3.0613    1.2241   -0.0003 H       1  UNL1        0.0632
     14 H          -3.0229   -1.2588    0.0002 H       1  UNL1        0.0619
     15 H           3.4131   -0.0199   -0.0002 H       1  UNL1        0.0845
@<TRIPOS>BOND
     1     1     3   ar
     2     1     4   ar
     3     1     5   ar
     4     2     3   ar
     5     2     9   ar
     6     3     6   ar
     7     4     7   ar
     8     4    10    1
     9     5     9   ar
    10     5    11    1
    11     6     8   ar
    12     6    12    1
    13     7     8   ar
    14     7    13    1
    15     8    14    1
    16     9    15    1
