@<TRIPOS>MOLECULE
9221
 15 16 0 0 0
SMALL
GASTEIGER

@<TRIPOS>ATOM
      1 N           1.5629   -1.0551   -0.0003 N.ar    1  UNL1       -0.2770
      2 N           2.4327   -0.0311    0.0002 N.ar    1  UNL1       -0.1812
      3 C           0.2481   -0.6745    0.0000 C.ar    1  UNL1        0.0657
      4 C           0.2694    0.7157   -0.0001 C.ar    1  UNL1        0.0195
      5 C          -0.9341   -1.4181    0.0001 C.ar    1  UNL1       -0.0363
      6 C          -0.9447    1.4227   -0.0001 C.ar    1  UNL1       -0.0511
      7 C           1.6422    1.0445    0.0001 C.ar    1  UNL1        0.0569
      8 C          -2.1346   -0.7001    0.0001 C.ar    1  UNL1       -0.0597
      9 C          -2.1419    0.6961    0.0000 C.ar    1  UNL1       -0.0610
     10 H          -0.9265   -2.5023    0.0001 H       1  UNL1        0.0639
     11 H          -0.9629    2.5083   -0.0001 H       1  UNL1        0.0625
     12 H           1.9339   -1.9971   -0.0003 H       1  UNL1        0.1889
     13 H           2.0978    2.0247    0.0003 H       1  UNL1        0.0854
     14 H          -3.0783   -1.2398    0.0002 H       1  UNL1        0.0618
     15 H          -3.0899    1.2279    0.0000 H       1  UNL1        0.0618
@<TRIPOS>BOND
     1     1     2   ar
     2     1     3   ar
     3     1    12    1
     4     2     7   ar
     5     3     4   ar
     6     3     5   ar
     7     4     6   ar
     8     4     7   ar
     9     5     8   ar
    10     5    10    1
    11     6     9   ar
    12     6    11    1
    13     7    13    1
    14     8     9   ar
    15     8    14    1
    16     9    15    1
