@<TRIPOS>MOLECULE
67499
 13 14 0 0 0
SMALL
GASTEIGER

@<TRIPOS>ATOM
      1 N           1.5224    1.0412    0.0001 N.ar    1  UNL1       -0.2601
      2 N           2.3953    0.0166    0.0000 N.ar    1  UNL1       -0.1798
      3 N          -0.8661    1.4382    0.0001 N.ar    1  UNL1       -0.2165
      4 N          -2.1273   -0.6499    0.0001 N.ar    1  UNL1       -0.2429
      5 C           0.2380   -0.7378    0.0000 C.ar    1  UNL1        0.0564
      6 C           0.2177    0.6459   -0.0001 C.ar    1  UNL1        0.1588
      7 C           1.6070   -1.0641   -0.0001 C.ar    1  UNL1        0.0599
      8 C          -0.9914   -1.3883    0.0000 C.ar    1  UNL1        0.0415
      9 C          -1.9958    0.6981   -0.0002 C.ar    1  UNL1        0.1183
     10 H           2.0670   -2.0421   -0.0002 H       1  UNL1        0.0855
     11 H           1.8880    1.9853    0.0001 H       1  UNL1        0.1905
     12 H          -1.1078   -2.4645    0.0001 H       1  UNL1        0.0838
     13 H          -2.9247    1.2585   -0.0001 H       1  UNL1        0.1047
@<TRIPOS>BOND
     1     1     2   ar
     2     1     6   ar
     3     1    11    1
     4     2     7   ar
     5     3     6   ar
     6     3     9   ar
     7     4     8   ar
     8     4     9   ar
     9     5     6   ar
    10     5     7   ar
    11     5     8   ar
    12     7    10    1
    13     8    12    1
    14     9    13    1
