@<TRIPOS>MOLECULE
1048
 9 9 0 0 0
SMALL
GASTEIGER

@<TRIPOS>ATOM
      1 N           0.3072    1.0613   -0.0001 N.ar    1  UNL1       -0.2847
      2 N           1.2001    0.0569    0.0000 N.ar    1  UNL1       -0.1823
      3 C          -0.9915    0.6443    0.0001 C.ar    1  UNL1        0.0223
      4 C          -0.9450   -0.7284   -0.0001 C.ar    1  UNL1       -0.0245
      5 C           0.4293   -1.0340    0.0001 C.ar    1  UNL1        0.0491
      6 H          -1.8132    1.3459    0.0001 H       1  UNL1        0.0824
      7 H          -1.7844   -1.4079   -0.0001 H       1  UNL1        0.0648
      8 H           0.6547    2.0122   -0.0001 H       1  UNL1        0.1882
      9 H           0.9010   -2.0062    0.0001 H       1  UNL1        0.0848
@<TRIPOS>BOND
     1     1     2   ar
     2     1     3   ar
     3     1     8    1
     4     2     5   ar
     5     3     4   ar
     6     3     6    1
     7     4     5   ar
     8     4     7    1
     9     5     9    1
