@<TRIPOS>MOLECULE
11636795
 14 15 0 0 0
SMALL
GASTEIGER

@<TRIPOS>ATOM
      1 N          -0.2680   -0.6635   -0.0001 N.ar    1  UNL1       -0.2218
      2 N          -1.5380   -1.1462    0.0000 N.ar    1  UNL1       -0.1734
      3 N           0.9171    1.4324    0.0000 N.ar    1  UNL1       -0.2361
      4 C          -0.2533    0.7323   -0.0003 C.ar    1  UNL1        0.1553
      5 C          -1.5700    1.1328   -0.0001 C.ar    1  UNL1        0.0023
      6 C           0.9189   -1.3911   -0.0001 C.ar    1  UNL1        0.0328
      7 C          -2.3080   -0.0585    0.0003 C.ar    1  UNL1        0.0519
      8 C           2.0973   -0.7600    0.0001 C.ar    1  UNL1       -0.0253
      9 C           2.0041    0.7219    0.0002 C.ar    1  UNL1        0.0314
     10 H          -1.9378    2.1486    0.0000 H       1  UNL1        0.0670
     11 H           0.8384   -2.4714   -0.0001 H       1  UNL1        0.0831
     12 H          -3.3814   -0.1823    0.0006 H       1  UNL1        0.0848
     13 H           3.0575   -1.2543    0.0001 H       1  UNL1        0.0648
     14 H           2.9743    1.2455    0.0006 H       1  UNL1        0.0831
@<TRIPOS>BOND
     1     1     2   ar
     2     1     4   ar
     3     1     6   ar
     4     2     7   ar
     5     3     4   ar
     6     3     9   ar
     7     4     5   ar
     8     5     7   ar
     9     5    10    1
    10     6     8   ar
    11     6    11    1
    12     7    12    1
    13     8     9   ar
    14     8    13    1
    15     9    14    1
