@<TRIPOS>MOLECULE
2755850
 14 15 0 0 0
SMALL
GASTEIGER

@<TRIPOS>ATOM
      1 N          -1.5167   -1.0498   -0.0001 N.ar    1  UNL1       -0.2602
      2 N           0.8712   -1.4338    0.0001 N.ar    1  UNL1       -0.2361
      3 N          -2.4002   -0.0352   -0.0001 N.ar    1  UNL1       -0.1799
      4 C          -0.2492    0.7434    0.0000 C.ar    1  UNL1        0.0384
      5 C          -0.2154   -0.6422    0.0001 C.ar    1  UNL1        0.1556
      6 C           0.9717    1.4295   -0.0001 C.ar    1  UNL1       -0.0481
      7 C          -1.6237    1.0532    0.0002 C.ar    1  UNL1        0.0584
      8 C           2.1358    0.6608   -0.0001 C.ar    1  UNL1       -0.0428
      9 C           2.0266   -0.7258    0.0000 C.ar    1  UNL1        0.0300
     10 H           1.0189    2.5132   -0.0001 H       1  UNL1        0.0626
     11 H          -2.0940    2.0264    0.0002 H       1  UNL1        0.0854
     12 H          -1.8724   -1.9976   -0.0003 H       1  UNL1        0.1905
     13 H           3.1102    1.1379   -0.0002 H       1  UNL1        0.0633
     14 H           2.9256   -1.3368    0.0000 H       1  UNL1        0.0830
@<TRIPOS>BOND
     1     1     3   ar
     2     1     5   ar
     3     1    12    1
     4     2     5   ar
     5     2     9   ar
     6     3     7   ar
     7     4     5   ar
     8     4     6   ar
     9     4     7   ar
    10     6     8   ar
    11     6    10    1
    12     7    11    1
    13     8     9   ar
    14     8    13    1
    15     9    14    1
