@<TRIPOS>MOLECULE
9222
 15 16 0 0 0
SMALL
GASTEIGER

@<TRIPOS>ATOM
      1 N          -1.5109   -1.1081   -0.0002 N.ar    1  UNL1       -0.3458
      2 N           0.8767   -1.4286    0.0001 N.ar    1  UNL1       -0.2375
      3 C          -0.2620    0.7432    0.0000 C.ar    1  UNL1        0.0186
      4 C          -0.2204   -0.6480   -0.0001 C.ar    1  UNL1        0.1381
      5 C          -1.6327    1.1137    0.0000 C.ar    1  UNL1       -0.0351
      6 C           0.9650    1.4262    0.0000 C.ar    1  UNL1       -0.0496
      7 C          -2.3775   -0.0460    0.0001 C.ar    1  UNL1        0.0041
      8 C           2.1331    0.6660   -0.0001 C.ar    1  UNL1       -0.0429
      9 C           2.0287   -0.7186    0.0001 C.ar    1  UNL1        0.0299
     10 H          -2.0359    2.1171    0.0001 H       1  UNL1        0.0639
     11 H          -1.7815   -2.0817   -0.0003 H       1  UNL1        0.1668
     12 H           1.0098    2.5105   -0.0001 H       1  UNL1        0.0625
     13 H          -3.4460   -0.2090    0.0002 H       1  UNL1        0.0807
     14 H           3.1048    1.1481   -0.0001 H       1  UNL1        0.0633
     15 H           2.9295   -1.3268    0.0001 H       1  UNL1        0.0830
@<TRIPOS>BOND
     1     1     4   ar
     2     1     7   ar
     3     1    11    1
     4     2     4   ar
     5     2     9   ar
     6     3     4   ar
     7     3     5   ar
     8     3     6   ar
     9     5     7   ar
    10     5    10    1
    11     6     8   ar
    12     6    12    1
    13     7    13    1
    14     8     9   ar
    15     8    14    1
    16     9    15    1
