@<TRIPOS>MOLECULE
8027
 10 10 0 0 0
SMALL
GASTEIGER

@<TRIPOS>ATOM
      1 N           0.0032   -1.1580   -0.0002 N.ar    1  UNL1       -0.3670
      2 C          -1.1187   -0.3708    0.0002 C.ar    1  UNL1        0.0016
      3 C           1.1207   -0.3648    0.0001 C.ar    1  UNL1        0.0016
      4 C          -0.7110    0.9448   -0.0002 C.ar    1  UNL1       -0.0444
      5 C           0.7058    0.9487    0.0000 C.ar    1  UNL1       -0.0444
      6 H           0.0060   -2.1687   -0.0003 H       1  UNL1        0.1648
      7 H          -2.1038   -0.8157    0.0003 H       1  UNL1        0.0807
      8 H           2.1083   -0.8041    0.0002 H       1  UNL1        0.0807
      9 H          -1.3638    1.8064   -0.0003 H       1  UNL1        0.0632
     10 H           1.3538    1.8139    0.0000 H       1  UNL1        0.0632
@<TRIPOS>BOND
     1     1     2   ar
     2     1     3   ar
     3     1     6    1
     4     2     4   ar
     5     2     7    1
     6     3     5   ar
     7     3     8    1
     8     4     5   ar
     9     4     9    1
    10     5    10    1
