@<TRIPOS>MOLECULE
5370803
 14 15 0 0 0
SMALL
GASTEIGER

@<TRIPOS>ATOM
      1 N           1.4991    1.1183    0.0000 N.ar    1  UNL1       -0.3446
      2 N          -0.9027    1.4386    0.0000 N.ar    1  UNL1       -0.2345
      3 N          -0.9119   -1.4448    0.0000 N.ar    1  UNL1       -0.2504
      4 C           0.2051    0.6747    0.0000 C.ar    1  UNL1        0.1565
      5 C           0.2316   -0.7136    0.0000 C.ar    1  UNL1        0.1073
      6 C           1.5884   -1.1118    0.0000 C.ar    1  UNL1       -0.0167
      7 C           2.3490    0.0394    0.0000 C.ar    1  UNL1        0.0056
      8 C          -2.0268    0.6916    0.0000 C.ar    1  UNL1        0.0480
      9 C          -2.0318   -0.6923    0.0000 C.ar    1  UNL1        0.0465
     10 H           1.7857    2.0874    0.0000 H       1  UNL1        0.1668
     11 H           1.9752   -2.1212    0.0000 H       1  UNL1        0.0654
     12 H           3.4197    0.1874    0.0000 H       1  UNL1        0.0808
     13 H          -2.9559    1.2514   -0.0001 H       1  UNL1        0.0846
     14 H          -2.9641   -1.2465    0.0001 H       1  UNL1        0.0845
@<TRIPOS>BOND
     1     1     4   ar
     2     1     7   ar
     3     1    10    1
     4     2     4   ar
     5     2     8   ar
     6     3     5   ar
     7     3     9   ar
     8     4     5   ar
     9     5     6   ar
    10     6     7   ar
    11     6    11    1
    12     7    12    1
    13     8     9   ar
    14     8    13    1
    15     9    14    1
