@<TRIPOS>MOLECULE
9226
 15 16 0 0 0
SMALL
GASTEIGER

@<TRIPOS>ATOM
      1 N          -1.5450   -1.1219    0.0000 N.ar    1  UNL1       -0.3594
      2 N           0.8839    1.4360    0.0000 N.ar    1  UNL1       -0.2535
      3 C          -0.2353   -0.7079    0.0000 C.ar    1  UNL1        0.0650
      4 C          -0.2474    0.6856    0.0000 C.ar    1  UNL1        0.0884
      5 C          -1.6011    1.1034    0.0000 C.ar    1  UNL1       -0.0183
      6 C           0.9625   -1.4210    0.0000 C.ar    1  UNL1       -0.0349
      7 C          -2.3791   -0.0332    0.0000 C.ar    1  UNL1        0.0042
      8 C           2.1292   -0.6629    0.0001 C.ar    1  UNL1       -0.0416
      9 C           2.0324    0.7220   -0.0001 C.ar    1  UNL1        0.0284
     10 H          -1.8497   -2.0856    0.0000 H       1  UNL1        0.1654
     11 H          -1.9713    2.1191    0.0001 H       1  UNL1        0.0654
     12 H           0.9870   -2.5044    0.0000 H       1  UNL1        0.0639
     13 H          -3.4519   -0.1649   -0.0001 H       1  UNL1        0.0807
     14 H           3.0998   -1.1478    0.0000 H       1  UNL1        0.0633
     15 H           2.9358    1.3259   -0.0001 H       1  UNL1        0.0830
@<TRIPOS>BOND
     1     1     3   ar
     2     1     7   ar
     3     1    10    1
     4     2     4   ar
     5     2     9   ar
     6     3     4   ar
     7     3     6   ar
     8     4     5   ar
     9     5     7   ar
    10     5    11    1
    11     6     8   ar
    12     6    12    1
    13     7    13    1
    14     8     9   ar
    15     8    14    1
    16     9    15    1
