@<TRIPOS>MOLECULE
3_methylhistidine
 23 23 0 0 0
SMALL
GASTEIGER

@<TRIPOS>ATOM
      1 O          -1.6995   -1.4607   -1.1120 O.3     1  UNL1       -0.4795
      2 OXT        -3.2178   -0.8272    0.4580 O.2     1  UNL1       -0.2492
      3 N           1.9036    0.6492   -0.1315 N.ar    1  UNL1       -0.3370
      4 N          -2.4146    1.7886    0.0197 N.3     1  UNL1       -0.3181
      5 N           2.4975   -1.4796    0.0869 N.ar    1  UNL1       -0.2438
      6 C          -0.3827    0.7245    0.8824 C.3     1  UNL1        0.0148
      7 CA         -1.4486    0.7150   -0.2219 C.3     1  UNL1        0.1086
      8 C           0.8858    0.0104    0.4734 C.ar    1  UNL1        0.0397
      9 C           1.2429   -1.2841    0.6075 C.ar    1  UNL1        0.0486
     10 C           2.8669   -0.2961   -0.3502 C.ar    1  UNL1        0.0959
     11 C          -2.2299   -0.5839   -0.2207 C.2     1  UNL1        0.3221
     12 C           1.9964    2.0440   -0.4917 C.3     1  UNL1        0.0130
     13 H          -0.7713    0.2496    1.7938 H       1  UNL1        0.0349
     14 H          -0.1334    1.7554    1.1657 H       1  UNL1        0.0349
     15 HA         -1.0115    0.8792   -1.2132 H       1  UNL1        0.0578
     16 H           0.6847   -2.0989    1.0448 H       1  UNL1        0.0848
     17 H           3.8108   -0.0687   -0.8269 H       1  UNL1        0.1029
     18 H           1.1274    2.3105   -1.0979 H       1  UNL1        0.0456
     19 H           2.0278    2.6367    0.4259 H       1  UNL1        0.0456
     20 H           2.9093    2.2099   -1.0698 H       1  UNL1        0.0456
     21 H1         -2.8648    1.6587    0.9250 H       1  UNL1        0.1190
     22 H2         -3.1528    1.7574   -0.6822 H       1  UNL1        0.1190
     23 H          -2.1974   -2.3055   -1.1344 H       1  UNL1        0.2951
@<TRIPOS>BOND
     1     1    11    1
     2     1    23    1
     3     2    11    2
     4     3     8   ar
     5     3    10   ar
     6     3    12    1
     7     4     7    1
     8     4    21    1
     9     4    22    1
    10     5     9   ar
    11     5    10   ar
    12     6     7    1
    13     6     8    1
    14     6    13    1
    15     6    14    1
    16     7    11    1
    17     7    15    1
    18     8     9   ar
    19     9    16    1
    20    10    17    1
    21    12    18    1
    22    12    19    1
    23    12    20    1
