@<TRIPOS>MOLECULE
aib_2_aminoisobutyric_acid
 16 15 0 0 0
SMALL
GASTEIGER

@<TRIPOS>ATOM
      1 O           1.4749    1.1817   -0.0103 O.3     1  UNL1       -0.4793
      2 O           1.5781   -1.0797   -0.0068 O.2     1  UNL1       -0.2489
      3 N          -1.0991   -1.4059   -0.0510 N.3     1  UNL1       -0.3163
      4 C          -0.6173   -0.0225    0.0020 C.3     1  UNL1        0.1088
      5 C          -1.1320    0.7316   -1.2289 C.3     1  UNL1       -0.0368
      6 C          -1.1128    0.6483    1.2846 C.3     1  UNL1       -0.0368
      7 C           0.9083   -0.0536    0.0105 C.2     1  UNL1        0.3243
      8 H          -2.2265    0.7077   -1.2836 H       1  UNL1        0.0253
      9 H          -0.8255    1.7837   -1.2108 H       1  UNL1        0.0253
     10 H          -0.7371    0.2975   -2.1553 H       1  UNL1        0.0253
     11 H          -0.7182    0.1460    2.1759 H       1  UNL1        0.0253
     12 H          -0.7942    1.6958    1.3382 H       1  UNL1        0.0253
     13 H          -2.2072    0.6326    1.3462 H       1  UNL1        0.0253
     14 H          -0.7491   -1.9302    0.7497 H       1  UNL1        0.1192
     15 H          -0.7422   -1.8701   -0.8852 H       1  UNL1        0.1192
     16 H           2.4545    1.1341   -0.0265 H       1  UNL1        0.2951
@<TRIPOS>BOND
     1     1     7    1
     2     1    16    1
     3     2     7    2
     4     3     4    1
     5     3    14    1
     6     3    15    1
     7     4     5    1
     8     4     6    1
     9     4     7    1
    10     5     8    1
    11     5     9    1
    12     5    10    1
    13     6    11    1
    14     6    12    1
    15     6    13    1
