@<TRIPOS>MOLECULE
beta_alanine
 13 12 0 0 0
SMALL
GASTEIGER

@<TRIPOS>ATOM
      1 O          -2.0404    0.9037    0.0084 O.3     1  UNL1       -0.4806
      2 O          -1.2993   -1.2480   -0.0005 O.2     1  UNL1       -0.2510
      3 N           2.7105    0.2249    0.0054 N.3     1  UNL1       -0.3295
      4 C           0.2904    0.6014   -0.0139 C.3     1  UNL1        0.0570
      5 C           1.4105   -0.4344    0.0026 C.3     1  UNL1        0.0032
      6 C          -1.0716   -0.0476   -0.0021 C.2     1  UNL1        0.3059
      7 H           0.3637    1.2200   -0.9160 H       1  UNL1        0.0390
      8 H           0.3667    1.2475    0.8686 H       1  UNL1        0.0390
      9 H           1.3351   -1.0905   -0.8721 H       1  UNL1        0.0427
     10 H           1.3270   -1.0680    0.8925 H       1  UNL1        0.0427
     11 H           2.8099    0.7921   -0.8355 H       1  UNL1        0.1182
     12 H           3.4465   -0.4788   -0.0360 H       1  UNL1        0.1182
     13 H          -2.9390    0.5104    0.0169 H       1  UNL1        0.2951
@<TRIPOS>BOND
     1     1     6    1
     2     1    13    1
     3     2     6    2
     4     3     5    1
     5     3    11    1
     6     3    12    1
     7     4     5    1
     8     4     6    1
     9     4     7    1
    10     4     8    1
    11     5     9    1
    12     5    10    1
