@<TRIPOS>MOLECULE
citrulline
 25 24 0 0 0
SMALL
GASTEIGER

@<TRIPOS>ATOM
      1 O          -3.3448   -1.2773   -0.4695 O.3     1  UNL1       -0.4795
      2 OXT        -3.5022    0.2985    1.1527 O.2     1  UNL1       -0.2493
      3 O           3.3668    0.3327    1.3163 O.2     1  UNL1       -0.2531
      4 N           2.2679   -0.6680   -0.4740 N.am    1  UNL1       -0.2996
      5 N          -1.7425    1.9566   -0.0819 N.3     1  UNL1       -0.3184
      6 N           4.1000    0.6827   -0.8308 N.am    1  UNL1       -0.3134
      7 C          -0.6660   -0.1380   -0.8584 C.3     1  UNL1       -0.0260
      8 C          -0.0045   -0.5229    0.4746 C.3     1  UNL1       -0.0354
      9 CA         -1.9717    0.6587   -0.7156 C.3     1  UNL1        0.1033
     10 C           1.2560   -1.3612    0.2752 C.3     1  UNL1        0.0131
     11 C          -3.0082   -0.0908    0.1023 C.2     1  UNL1        0.3217
     12 C           3.2493    0.1290    0.1092 C.2     1  UNL1        0.2971
     13 H           0.0366    0.4469   -1.4656 H       1  UNL1        0.0286
     14 H          -0.8695   -1.0558   -1.4251 H       1  UNL1        0.0286
     15 H          -0.7053   -1.0977    1.0903 H       1  UNL1        0.0281
     16 H           0.2565    0.3806    1.0372 H       1  UNL1        0.0281
     17 HA         -2.4043    0.8418   -1.7058 H       1  UNL1        0.0574
     18 H           1.6662   -1.6429    1.2512 H       1  UNL1        0.0462
     19 H           1.0204   -2.2824   -0.2682 H       1  UNL1        0.0462
     20 H           2.2643   -0.7615   -1.4851 H       1  UNL1        0.1502
     21 H1         -1.0207    2.4636   -0.5928 H       1  UNL1        0.1190
     22 H2         -1.3834    1.8314    0.8632 H       1  UNL1        0.1190
     23 H          -4.0138   -1.7611    0.0601 H       1  UNL1        0.2951
     24 H           3.9867    0.5035   -1.8228 H       1  UNL1        0.1465
     25 H           4.8657    1.2879   -0.5544 H       1  UNL1        0.1465
@<TRIPOS>BOND
     1     1    11    1
     2     1    23    1
     3     2    11    2
     4     3    12    2
     5     4    10    1
     6     4    12   am
     7     4    20    1
     8     5     9    1
     9     5    21    1
    10     5    22    1
    11     6    12   am
    12     6    24    1
    13     6    25    1
    14     7     8    1
    15     7     9    1
    16     7    13    1
    17     7    14    1
    18     8    10    1
    19     8    15    1
    20     8    16    1
    21     9    11    1
    22     9    17    1
    23    10    18    1
    24    10    19    1
