@<TRIPOS>MOLECULE
cystine
 26 25 0 0 0
SMALL
GASTEIGER

@<TRIPOS>ATOM
      1 SG         -0.4126   -0.2308    0.9457 S.3     1  CYS1       -0.0910
      2 SG          0.4167   -0.2255   -0.9335 S.3     1  CYS1       -0.0910
      3 O          -3.2409   -1.5942   -1.0036 O.3     1  CYS1       -0.4795
      4 O           3.2471   -1.5935    1.0015 O.3     1  CYS1       -0.4795
      5 OXT        -4.0463   -0.8876    0.9959 O.2     1  CYS1       -0.2492
      6 OXT         4.0421   -0.8862   -1.0019 O.2     1  CYS1       -0.2492
      7 N          -3.7666    1.6853   -0.4069 N.3     1  CYS1       -0.3177
      8 N           3.7656    1.6866    0.4017 N.3     1  CYS1       -0.3177
      9 CA         -2.7275    0.6575   -0.3169 C.3     1  CYS1        0.1131
     10 CA          2.7276    0.6574    0.3168 C.3     1  CYS1        0.1131
     11 CB         -1.7150    1.0301    0.7677 C.3     1  CYS1        0.0295
     12 CB          1.7095    1.0285   -0.7631 C.3     1  CYS1        0.0295
     13 C          -3.4158   -0.6642   -0.0311 C.2     1  CYS1        0.3226
     14 C           3.4162   -0.6634    0.0279 C.2     1  CYS1        0.3226
     15 HA         -2.2525    0.6060   -1.3016 H       1  CYS1        0.0582
     16 HA          2.2636    0.6043    1.3063 H       1  CYS1        0.0582
     17 HB1        -1.2455    1.9981    0.5588 H       1  CYS1        0.0405
     18 HB2        -2.2087    1.1165    1.7427 H       1  CYS1        0.0405
     19 HB1         1.2428    1.9974   -0.5517 H       1  CYS1        0.0405
     20 HB2         2.1990    1.1168   -1.7401 H       1  CYS1        0.0405
     21 H1         -4.3813    1.4827   -1.1946 H       1  CYS1        0.1190
     22 H2         -3.3379    2.5884   -0.6069 H       1  CYS1        0.1190
     23 H1          3.3357    2.5849    0.6209 H       1  CYS1        0.1190
     24 H2          4.2079    1.8067   -0.5093 H       1  CYS1        0.1190
     25 H          -3.6831   -2.4417   -0.7833 H       1  CYS1        0.2951
     26 H           3.6893   -2.4404    0.7792 H       1  CYS1        0.2951
@<TRIPOS>BOND
     1     1     2    1
     2     1    11    1
     3     2    12    1
     4     3    13    1
     5     3    25    1
     6     4    14    1
     7     4    26    1
     8     5    13    2
     9     6    14    2
    10     7     9    1
    11     7    21    1
    12     7    22    1
    13     8    10    1
    14     8    23    1
    15     8    24    1
    16     9    11    1
    17     9    13    1
    18     9    15    1
    19    10    12    1
    20    10    14    1
    21    10    16    1
    22    11    17    1
    23    11    18    1
    24    12    19    1
    25    12    20    1
