@<TRIPOS>MOLECULE
d_alanine
 13 12 0 0 0
SMALL
GASTEIGER

@<TRIPOS>ATOM
      1 O           1.4540   -1.0463   -0.2600 O.3     1  ALA1       -0.4795
      2 OXT         1.2497    1.1182    0.4005 O.2     1  ALA1       -0.2493
      3 N          -1.4128    1.1501   -0.1734 N.3     1  ALA1       -0.3186
      4 CA         -0.7093   -0.1115   -0.3951 C.3     1  ALA1        0.1004
      5 CB         -1.3291   -1.2038    0.4660 C.3     1  ALA1       -0.0395
      6 C           0.7475    0.0933   -0.0380 C.2     1  ALA1        0.3214
      7 HA         -0.7772   -0.3698   -1.4569 H       1  ALA1        0.0571
      8 HB1        -2.3997   -1.3089    0.2583 H       1  ALA1        0.0250
      9 HB2        -0.8590   -2.1736    0.2695 H       1  ALA1        0.0250
     10 HB3        -1.2071   -0.9930    1.5349 H       1  ALA1        0.0250
     11 H1         -0.9750    1.8923   -0.7175 H       1  ALA1        0.1189
     12 H2         -1.3418    1.4251    0.8055 H       1  ALA1        0.1189
     13 H           2.4015   -0.9395   -0.0294 H       1  ALA1        0.2951
@<TRIPOS>BOND
     1     1     6    1
     2     1    13    1
     3     2     6    2
     4     3     4    1
     5     3    11    1
     6     3    12    1
     7     4     5    1
     8     4     6    1
     9     4     7    1
    10     5     8    1
    11     5     9    1
    12     5    10    1
