@<TRIPOS>MOLECULE
gaba
 16 15 0 0 0
SMALL
GASTEIGER

@<TRIPOS>ATOM
      1 O          -2.7304    0.7113    0.0340 O.3     1  UNL1       -0.4806
      2 O          -1.6893   -1.3065   -0.0235 O.2     1  UNL1       -0.2510
      3 N           3.3244   -0.3603    0.0278 N.3     1  UNL1       -0.3300
      4 C           0.8770   -0.2175    0.0236 C.3     1  UNL1       -0.0306
      5 C          -0.3425    0.6976   -0.0316 C.3     1  UNL1        0.0459
      6 C           2.1933    0.5590   -0.0314 C.3     1  UNL1       -0.0064
      7 C          -1.6326   -0.0835    0.0011 C.2     1  UNL1        0.3047
      8 H           0.8387   -0.8168    0.9431 H       1  UNL1        0.0283
      9 H           0.8363   -0.9285   -0.8123 H       1  UNL1        0.0283
     10 H          -0.3262    1.2875   -0.9545 H       1  UNL1        0.0378
     11 H          -0.3327    1.3780    0.8269 H       1  UNL1        0.0378
     12 H           2.2528    1.1429   -0.9560 H       1  UNL1        0.0422
     13 H           2.2567    1.2609    0.8069 H       1  UNL1        0.0422
     14 H           3.2661   -1.0248   -0.7431 H       1  UNL1        0.1182
     15 H           3.2696   -0.9161    0.8806 H       1  UNL1        0.1182
     16 H          -3.5607    0.1889    0.0430 H       1  UNL1        0.2951
@<TRIPOS>BOND
     1     1     7    1
     2     1    16    1
     3     2     7    2
     4     3     6    1
     5     3    14    1
     6     3    15    1
     7     4     5    1
     8     4     6    1
     9     4     8    1
    10     4     9    1
    11     5     7    1
    12     5    10    1
    13     5    11    1
    14     6    12    1
    15     6    13    1
