@<TRIPOS>MOLECULE
gamma_carboxyglutamic_acid
 22 21 0 0 0
SMALL
GASTEIGER

@<TRIPOS>ATOM
      1 O          -1.6080    2.1312   -0.9718 O.3     1  UNL1       -0.4800
      2 O          -1.7817   -2.3578   -0.4974 O.3     1  UNL1       -0.4800
      3 O           2.8206   -0.0707    1.6721 O.3     1  UNL1       -0.4795
      4 O          -1.5737    1.6447    1.2477 O.2     1  UNL1       -0.2501
      5 O          -3.1108   -0.9216    0.6610 O.2     1  UNL1       -0.2501
      6 OXT         3.7161   -0.5589   -0.3526 O.2     1  UNL1       -0.2493
      7 N           1.5943    0.3220   -1.7087 N.3     1  UNL1       -0.3184
      8 C           0.2982   -0.5047    0.1988 C.3     1  UNL1       -0.0041
      9 C          -1.0670   -0.1010   -0.3893 C.3     1  UNL1        0.1545
     10 CA          1.4706    0.3810   -0.2491 C.3     1  UNL1        0.1045
     11 C          -1.4329    1.2953    0.0848 C.2     1  UNL1        0.3187
     12 C          -2.1116   -1.1347   -0.0109 C.2     1  UNL1        0.3187
     13 C           2.7858   -0.1246    0.3155 C.2     1  UNL1        0.3217
     14 H           0.2351   -0.4860    1.2959 H       1  UNL1        0.0299
     15 H           0.5260   -1.5496   -0.0537 H       1  UNL1        0.0299
     16 H          -1.0306   -0.0959   -1.4860 H       1  UNL1        0.0529
     17 HA          1.3388    1.4230    0.0592 H       1  UNL1        0.0574
     18 H1          1.7590   -0.6379   -2.0094 H       1  UNL1        0.1190
     19 H2          2.4007    0.8666   -2.0114 H       1  UNL1        0.1190
     20 H          -1.8520    3.0368   -0.6846 H       1  UNL1        0.2951
     21 H          -2.4417   -3.0401   -0.2501 H       1  UNL1        0.2951
     22 H           3.6684   -0.4104    2.0299 H       1  UNL1        0.2951
@<TRIPOS>BOND
     1     1    11    1
     2     1    20    1
     3     2    12    1
     4     2    21    1
     5     3    13    1
     6     3    22    1
     7     4    11    2
     8     5    12    2
     9     6    13    2
    10     7    10    1
    11     7    18    1
    12     7    19    1
    13     8     9    1
    14     8    10    1
    15     8    14    1
    16     8    15    1
    17     9    11    1
    18     9    12    1
    19     9    16    1
    20    10    13    1
    21    10    17    1
