@<TRIPOS>MOLECULE
homoserine
 17 16 0 0 0
SMALL
GASTEIGER

@<TRIPOS>ATOM
      1 O           3.3051    0.5217   -0.3768 O.3     1  UNL1       -0.3949
      2 O          -1.7185    1.5620    0.3379 O.3     1  UNL1       -0.4795
      3 OXT        -2.4690   -0.3314   -0.6586 O.2     1  UNL1       -0.2493
      4 N          -0.3465   -1.7834    0.1503 N.3     1  UNL1       -0.3183
      5 CA         -0.3110   -0.3603    0.4866 C.3     1  UNL1        0.1053
      6 C           0.8911    0.3584   -0.1453 C.3     1  UNL1       -0.0041
      7 C           2.2546   -0.2214    0.2237 C.3     1  UNL1        0.0461
      8 C          -1.6058    0.2544   -0.0178 C.2     1  UNL1        0.3218
      9 HA         -0.2861   -0.2633    1.5774 H       1  UNL1        0.0575
     10 H           0.8801    1.4196    0.1368 H       1  UNL1        0.0308
     11 H           0.7953    0.3633   -1.2402 H       1  UNL1        0.0308
     12 H           2.3944   -0.1968    1.3093 H       1  UNL1        0.0558
     13 H           2.3419   -1.2583   -0.1154 H       1  UNL1        0.0558
     14 H1         -0.3969   -1.9030   -0.8606 H       1  UNL1        0.1190
     15 H2         -1.1849   -2.2128    0.5390 H       1  UNL1        0.1190
     16 H           4.1414    0.1089   -0.1012 H       1  UNL1        0.2094
     17 H          -2.5570    1.9568    0.0164 H       1  UNL1        0.2951
@<TRIPOS>BOND
     1     1     7    1
     2     1    16    1
     3     2     8    1
     4     2    17    1
     5     3     8    2
     6     4     5    1
     7     4    14    1
     8     4    15    1
     9     5     6    1
    10     5     8    1
    11     5     9    1
    12     6     7    1
    13     6    10    1
    14     6    11    1
    15     7    12    1
    16     7    13    1
