@<TRIPOS>MOLECULE
homocysteine
 17 16 0 0 0
SMALL
GASTEIGER

@<TRIPOS>ATOM
      1 S           3.3715   -0.5548    0.3014 S.3     1  UNL1       -0.1782
      2 O          -1.4911   -1.5744   -0.5671 O.3     1  UNL1       -0.4795
      3 OXT        -1.9048   -0.1686    1.1624 O.2     1  UNL1       -0.2493
      4 N          -0.6146    1.8818    0.0401 N.3     1  UNL1       -0.3184
      5 CA         -0.5530    0.6208   -0.7056 C.3     1  UNL1        0.1040
      6 C           0.9109    0.1720   -0.8193 C.3     1  UNL1       -0.0186
      7 C           1.6563    0.0088    0.5086 C.3     1  UNL1       -0.0074
      8 C          -1.3753   -0.3855    0.0795 C.2     1  UNL1        0.3217
      9 HA         -1.0044    0.7570   -1.6939 H       1  UNL1        0.0574
     10 H           0.9421   -0.7815   -1.3632 H       1  UNL1        0.0293
     11 H           1.4487    0.8988   -1.4436 H       1  UNL1        0.0293
     12 H           1.1483   -0.7220    1.1452 H       1  UNL1        0.0374
     13 H           1.6908    0.9569    1.0538 H       1  UNL1        0.0374
     14 H1         -1.5746    2.2248    0.0506 H       1  UNL1        0.1190
     15 H2         -0.0662    2.5910   -0.4452 H       1  UNL1        0.1190
     16 H           3.7948    0.4986   -0.4125 H       1  UNL1        0.1016
     17 H          -2.0323   -2.2157   -0.0590 H       1  UNL1        0.2951
@<TRIPOS>BOND
     1     1     7    1
     2     1    16    1
     3     2     8    1
     4     2    17    1
     5     3     8    2
     6     4     5    1
     7     4    14    1
     8     4    15    1
     9     5     6    1
    10     5     8    1
    11     5     9    1
    12     6     7    1
    13     6    10    1
    14     6    11    1
    15     7    12    1
    16     7    13    1
