@<TRIPOS>MOLECULE
kynurenine
 27 27 0 0 0
SMALL
GASTEIGER

@<TRIPOS>ATOM
      1 O          -0.5061   -0.8916   -1.4486 O.2     1  UNL1       -0.2919
      2 O          -3.2804   -1.5912    0.0979 O.3     1  UNL1       -0.4795
      3 OXT        -2.5461   -0.3021    1.8123 O.2     1  UNL1       -0.2492
      4 N          -3.5261    1.7305   -0.1141 N.3     1  UNL1       -0.3181
      5 N           1.4263   -2.2502   -0.2149 N.pl3   1  UNL1       -0.3574
      6 C          -1.1729    1.1664   -0.4347 C.3     1  UNL1        0.0361
      7 CA         -2.6079    0.6370   -0.4417 C.3     1  UNL1        0.1103
      8 C          -0.1662    0.0812   -0.7764 C.2     1  UNL1        0.1669
      9 C           1.2421    0.1834   -0.2921 C.ar    1  UNL1        0.0381
     10 C           1.9686   -0.9579   -0.0357 C.ar    1  UNL1        0.0351
     11 C           1.7628    1.4478   -0.1196 C.ar    1  UNL1       -0.0495
     12 C          -2.7885   -0.4368    0.6197 C.2     1  UNL1        0.3221
     13 C           3.2821   -0.8297    0.4159 C.ar    1  UNL1       -0.0404
     14 C           3.0764    1.5759    0.3321 C.ar    1  UNL1       -0.0610
     15 C           3.8359    0.4372    0.5999 C.ar    1  UNL1       -0.0600
     16 H          -0.9314    1.5697    0.5568 H       1  UNL1        0.0366
     17 H          -1.0642    1.9687   -1.1744 H       1  UNL1        0.0366
     18 HA         -2.8661    0.2334   -1.4269 H       1  UNL1        0.0578
     19 H           1.1999    2.3501   -0.3350 H       1  UNL1        0.0625
     20 H1         -3.3120    2.1050    0.8094 H       1  UNL1        0.1190
     21 H2         -4.4818    1.3792   -0.0728 H       1  UNL1        0.1190
     22 H           3.8855   -1.7087    0.6283 H       1  UNL1        0.0636
     23 H           3.5091    2.5622    0.4719 H       1  UNL1        0.0618
     24 H           4.8589    0.5371    0.9507 H       1  UNL1        0.0618
     25 H           1.9928   -3.0633   -0.0114 H       1  UNL1        0.1423
     26 H           0.4698   -2.3746   -0.5153 H       1  UNL1        0.1423
     27 H          -3.4035   -2.2796    0.7858 H       1  UNL1        0.2951
@<TRIPOS>BOND
     1     1     8    2
     2     2    12    1
     3     2    27    1
     4     3    12    2
     5     4     7    1
     6     4    20    1
     7     4    21    1
     8     5    10    1
     9     5    25    1
    10     5    26    1
    11     6     7    1
    12     6     8    1
    13     6    16    1
    14     6    17    1
    15     7    12    1
    16     7    18    1
    17     8     9    1
    18     9    10   ar
    19     9    11   ar
    20    10    13   ar
    21    11    14   ar
    22    11    19    1
    23    13    15   ar
    24    13    22    1
    25    14    15   ar
    26    14    23    1
    27    15    24    1
