@<TRIPOS>MOLECULE
l_dopa
 25 25 0 0 0
SMALL
GASTEIGER

@<TRIPOS>ATOM
      1 O           2.5189   -2.0482    0.5529 O.3     1  UNL1       -0.5033
      2 O          -1.8525   -1.4781   -1.2114 O.3     1  UNL1       -0.4795
      3 O           4.0510   -0.0382   -0.6028 O.3     1  UNL1       -0.5033
      4 OXT        -3.5500   -1.3470    0.2877 O.2     1  UNL1       -0.2492
      5 N          -3.5526    1.3806   -0.0143 N.3     1  UNL1       -0.3181
      6 C          -1.3018    0.9726    0.8705 C.3     1  UNL1       -0.0019
      7 CA         -2.2993    0.6704   -0.2586 C.3     1  UNL1        0.1072
      8 C           0.1315    0.6987    0.4769 C.ar    1  UNL1       -0.0417
      9 C           0.6662   -0.5593    0.6993 C.ar    1  UNL1       -0.0133
     10 C           0.8815    1.7113   -0.0977 C.ar    1  UNL1       -0.0548
     11 C           1.9893   -0.8120    0.3367 C.ar    1  UNL1        0.1585
     12 C          -2.6449   -0.8068   -0.3356 C.2     1  UNL1        0.3220
     13 C           2.2044    1.4588   -0.4603 C.ar    1  UNL1       -0.0163
     14 C           2.7582    0.1972   -0.2433 C.ar    1  UNL1        0.1582
     15 H          -1.5494    0.3973    1.7732 H       1  UNL1        0.0334
     16 H          -1.3716    2.0279    1.1699 H       1  UNL1        0.0334
     17 HA         -1.9212    0.9952   -1.2349 H       1  UNL1        0.0577
     18 H           0.0713   -1.3472    1.1531 H       1  UNL1        0.0658
     19 H           0.4581    2.6960   -0.2731 H       1  UNL1        0.0621
     20 H           2.7920    2.2536   -0.9119 H       1  UNL1        0.0655
     21 H1         -3.3785    2.3851   -0.0004 H       1  UNL1        0.1190
     22 H2         -3.9073    1.1480    0.9133 H       1  UNL1        0.1190
     23 H           3.4410   -2.0445    0.2425 H       1  UNL1        0.2923
     24 H          -2.0900   -2.4283   -1.2649 H       1  UNL1        0.2951
     25 H           4.4254    0.7730   -0.9873 H       1  UNL1        0.2923
@<TRIPOS>BOND
     1     1    11    1
     2     1    23    1
     3     2    12    1
     4     2    24    1
     5     3    14    1
     6     3    25    1
     7     4    12    2
     8     5     7    1
     9     5    21    1
    10     5    22    1
    11     6     7    1
    12     6     8    1
    13     6    15    1
    14     6    16    1
    15     7    12    1
    16     7    17    1
    17     8     9   ar
    18     8    10   ar
    19     9    11   ar
    20     9    18    1
    21    10    13   ar
    22    10    19    1
    23    11    14   ar
    24    13    14   ar
    25    13    20    1
