@<TRIPOS>MOLECULE
n_formylmethionine
 22 21 0 0 0
SMALL
GASTEIGER

@<TRIPOS>ATOM
      1 SD          3.1510   -0.8964    0.5559 S.3     1  MET1       -0.1641
      2 O          -1.1584    2.0052   -1.1700 O.3     1  MET1       -0.4793
      3 OXT        -0.4614    2.5116    0.9206 O.2     1  MET1       -0.2489
      4 O          -2.5957   -2.1888    0.4922 O.2     0  UNK0       -0.2795
      5 N          -1.3991   -0.5760   -0.7066 N.am    1  MET1       -0.3050
      6 CA         -0.8732    0.1837    0.3984 C.3     1  MET1        0.1208
      7 CB          0.4669   -0.3825    0.8879 C.3     1  MET1       -0.0151
      8 CG          1.6139   -0.1890   -0.1066 C.3     1  MET1       -0.0044
      9 C          -0.7885    1.6712    0.0897 C.2     1  MET1        0.3253
     10 C          -2.2061   -1.6839   -0.5529 C.2     0  UNK0        0.2006
     11 CE          4.2507   -0.4550   -0.8086 C.3     1  MET1       -0.0181
     12 HA         -1.6017    0.0927    1.2148 H       1  MET1        0.0614
     13 HB1         0.3447   -1.4505    1.1118 H       1  MET1        0.0296
     14 HB2         0.7271    0.1137    1.8326 H       1  MET1        0.0296
     15 HG1         1.3822   -0.6833   -1.0553 H       1  MET1        0.0377
     16 HG2         1.7794    0.8753   -0.2997 H       1  MET1        0.0377
     17 H          -1.1524   -0.2884   -1.6495 H       1  MET1        0.1492
     18 H          -2.4825   -2.0999   -1.5358 H       0  UNK0        0.1251
     19 HE1         4.2876    0.6304   -0.9332 H       1  MET1        0.0340
     20 HE2         3.9120   -0.9212   -1.7375 H       1  MET1        0.0340
     21 HE3         5.2598   -0.8133   -0.5883 H       1  MET1        0.0340
     22 H          -1.1130    2.9733   -1.3209 H       1  MET1        0.2951
@<TRIPOS>BOND
     1     1     8    1
     2     1    11    1
     3     2     9    1
     4     2    22    1
     5     3     9    2
     6     4    10    2
     7     5     6    1
     8     5    10   am
     9     5    17    1
    10     6     7    1
    11     6     9    1
    12     6    12    1
    13     7     8    1
    14     7    13    1
    15     7    14    1
    16     8    15    1
    17     8    16    1
    18    10    18    1
    19    11    19    1
    20    11    20    1
    21    11    21    1
