@<TRIPOS>MOLECULE
norleucine
 22 21 0 0 0
SMALL
GASTEIGER

@<TRIPOS>ATOM
      1 O          -1.2058    1.7223    0.7364 O.3     1  UNL1       -0.4795
      2 OXT        -2.1779    0.8179   -1.1019 O.2     1  UNL1       -0.2493
      3 N          -2.0932   -1.6522    0.1158 N.3     1  UNL1       -0.3184
      4 C           0.2734   -1.0475   -0.0582 C.3     1  UNL1       -0.0274
      5 C           1.3628   -0.0130    0.2455 C.3     1  UNL1       -0.0514
      6 CA         -1.0953   -0.6548    0.5103 C.3     1  UNL1        0.1032
      7 C           2.7039   -0.4256   -0.3632 C.3     1  UNL1       -0.0558
      8 C           3.7975    0.5778   -0.0335 C.3     1  UNL1       -0.0653
      9 C          -1.5653    0.6751   -0.0511 C.2     1  UNL1        0.3217
     10 H           0.5744   -2.0209    0.3501 H       1  UNL1        0.0285
     11 H           0.2041   -1.1674   -1.1480 H       1  UNL1        0.0285
     12 H           1.0897    0.9651   -0.1647 H       1  UNL1        0.0266
     13 H           1.4655    0.1027    1.3311 H       1  UNL1        0.0266
     14 HA         -1.0722   -0.5962    1.6038 H       1  UNL1        0.0574
     15 H           2.9969   -1.4117    0.0156 H       1  UNL1        0.0263
     16 H           2.6088   -0.5111   -1.4520 H       1  UNL1        0.0263
     17 H           3.5512    1.5697   -0.4258 H       1  UNL1        0.0230
     18 H           4.7470    0.2631   -0.4776 H       1  UNL1        0.0230
     19 H           3.9399    0.6616    1.0486 H       1  UNL1        0.0230
     20 H1         -1.8242   -2.5641    0.4844 H       1  UNL1        0.1190
     21 H2         -2.0996   -1.7548   -0.8988 H       1  UNL1        0.1190
     22 H          -1.5002    2.5796    0.3612 H       1  UNL1        0.2951
@<TRIPOS>BOND
     1     1     9    1
     2     1    22    1
     3     2     9    2
     4     3     6    1
     5     3    20    1
     6     3    21    1
     7     4     5    1
     8     4     6    1
     9     4    10    1
    10     4    11    1
    11     5     7    1
    12     5    12    1
    13     5    13    1
    14     6     9    1
    15     6    14    1
    16     7     8    1
    17     7    15    1
    18     7    16    1
    19     8    17    1
    20     8    18    1
    21     8    19    1
