@<TRIPOS>MOLECULE
norvaline
 19 18 0 0 0
SMALL
GASTEIGER

@<TRIPOS>ATOM
      1 O          -1.6682   -1.5813   -0.3278 O.3     1  UNL1       -0.4795
      2 OXT        -2.5392    0.2999    0.6022 O.2     1  UNL1       -0.2493
      3 N          -0.3709    1.7878   -0.1238 N.3     1  UNL1       -0.3184
      4 C           0.8929   -0.3199    0.1921 C.3     1  UNL1       -0.0276
      5 CA         -0.3279    0.3618   -0.4434 C.3     1  UNL1        0.1032
      6 C           2.2449    0.2386   -0.2690 C.3     1  UNL1       -0.0540
      7 C           3.4010   -0.5224    0.3630 C.3     1  UNL1       -0.0652
      8 C          -1.6326   -0.2646    0.0067 C.2     1  UNL1        0.3217
      9 H           0.8246   -0.2472    1.2861 H       1  UNL1        0.0285
     10 H           0.8657   -1.3932   -0.0367 H       1  UNL1        0.0285
     11 HA         -0.2790    0.2660   -1.5344 H       1  UNL1        0.0574
     12 H           2.3204    0.1692   -1.3603 H       1  UNL1        0.0263
     13 H           2.3303    1.2977   -0.0019 H       1  UNL1        0.0263
     14 H           3.3685   -0.4492    1.4547 H       1  UNL1        0.0230
     15 H           4.3563   -0.1104    0.0230 H       1  UNL1        0.0230
     16 H           3.3712   -1.5815    0.0879 H       1  UNL1        0.0230
     17 H1         -0.4471    1.9173    0.8842 H       1  UNL1        0.1190
     18 H2         -1.2001    2.2126   -0.5369 H       1  UNL1        0.1190
     19 H          -2.5018   -2.0095   -0.0380 H       1  UNL1        0.2951
@<TRIPOS>BOND
     1     1     8    1
     2     1    19    1
     3     2     8    2
     4     3     5    1
     5     3    17    1
     6     3    18    1
     7     4     5    1
     8     4     6    1
     9     4     9    1
    10     4    10    1
    11     5     8    1
    12     5    11    1
    13     6     7    1
    14     6    12    1
    15     6    13    1
    16     7    14    1
    17     7    15    1
    18     7    16    1
