@<TRIPOS>MOLECULE
ornithine
 21 20 0 0 0
SMALL
GASTEIGER

@<TRIPOS>ATOM
      1 O           1.6884   -1.5615    0.7827 O.3     1  UNL1       -0.4795
      2 OXT         2.1485   -0.6169   -1.2261 O.2     1  UNL1       -0.2493
      3 N           1.2965    1.8348   -0.4347 N.3     1  UNL1       -0.3184
      4 N          -3.6082   -0.4932   -0.7057 N.3     1  UNL1       -0.3300
      5 C          -0.3416    0.5599    0.9520 C.3     1  UNL1       -0.0262
      6 C          -1.2979    0.1323   -0.1704 C.3     1  UNL1       -0.0387
      7 CA          1.1222    0.7429    0.5227 C.3     1  UNL1        0.1033
      8 C          -2.7133   -0.0799    0.3687 C.3     1  UNL1       -0.0068
      9 C           1.7055   -0.5185   -0.0891 C.2     1  UNL1        0.3217
     10 H          -0.7035    1.4975    1.3939 H       1  UNL1        0.0286
     11 H          -0.3832   -0.1908    1.7520 H       1  UNL1        0.0286
     12 H          -0.9430   -0.7970   -0.6317 H       1  UNL1        0.0278
     13 H          -1.3168    0.8981   -0.9550 H       1  UNL1        0.0278
     14 HA          1.7249    0.9851    1.4059 H       1  UNL1        0.0574
     15 H          -3.0897    0.8452    0.8190 H       1  UNL1        0.0422
     16 H          -2.7091   -0.8521    1.1454 H       1  UNL1        0.0422
     17 H1          0.8153    1.6194   -1.3066 H       1  UNL1        0.1190
     18 H2          2.2836    1.9358   -0.6682 H       1  UNL1        0.1190
     19 H          -3.6426    0.2311   -1.4219 H       1  UNL1        0.1182
     20 H          -4.5561   -0.5799   -0.3414 H       1  UNL1        0.1182
     21 H           2.0654   -2.3755    0.3857 H       1  UNL1        0.2951
@<TRIPOS>BOND
     1     1     9    1
     2     1    21    1
     3     2     9    2
     4     3     7    1
     5     3    17    1
     6     3    18    1
     7     4     8    1
     8     4    19    1
     9     4    20    1
    10     5     6    1
    11     5     7    1
    12     5    10    1
    13     5    11    1
    14     6     8    1
    15     6    12    1
    16     6    13    1
    17     7     9    1
    18     7    14    1
    19     8    15    1
    20     8    16    1
