@<TRIPOS>MOLECULE
phosphoserine
 19 18 0 0 0
SMALL
GASTEIGER

@<TRIPOS>ATOM
      1 P1          2.2312    0.1578   -0.0234 P.3     1  <1>         0.4724
      2 O1          0.6719    0.1779    0.4023 O.3     1  <1>        -0.2847
      3 O2          2.1908   -0.0787   -1.6227 O.3     1  <1>        -0.3026
      4 O3          2.7394   -1.2660    0.5504 O.3     1  <1>        -0.3026
      5 O4         -1.8827    1.6617    0.7898 O.3     1  <1>        -0.4795
      6 O5          3.0294    1.3451    0.4296 O.2     1  <1>        -0.2275
      7 O6         -2.6867    0.7321   -1.1182 O.2     1  <1>        -0.2492
      8 N1         -2.4558   -1.7430    0.1076 N.3     1  <1>        -0.3166
      9 C1         -1.5655   -0.6836    0.5145 C.3     1  <1>         0.1273
     10 C2         -0.1492   -0.9147    0.0085 C.3     1  <1>         0.0846
     11 C3         -2.1229    0.6115   -0.0383 C.2     1  <1>         0.3240
     12 H1         -1.5690   -0.6154    1.6086 H       1  <1>         0.0597
     13 H2         -0.1362   -0.9887   -1.0849 H       1  <1>         0.0587
     14 H3          0.2547   -1.8431    0.4262 H       1  <1>         0.0587
     15 H4         -2.4927   -1.8118   -0.9086 H       1  <1>         0.1190
     16 H5         -3.4057   -1.5520    0.4230 H       1  <1>         0.1190
     17 H6          3.0327   -0.0654   -2.1257 H       1  <1>         0.2220
     18 H7          3.6942   -1.4846    0.4999 H       1  <1>         0.2220
     19 H8         -2.2244    2.5038    0.4206 H       1  <1>         0.2951
@<TRIPOS>BOND
     1     1     2    1
     2     1     3    1
     3     1     4    1
     4     1     6    2
     5     2    10    1
     6     3    17    1
     7     4    18    1
     8     5    11    1
     9     5    19    1
    10     7    11    2
    11     8     9    1
    12     8    15    1
    13     8    16    1
    14     9    10    1
    15     9    11    1
    16     9    12    1
    17    10    13    1
    18    10    14    1
