@<TRIPOS>MOLECULE
phosphothreonine
 22 21 0 0 0
SMALL
GASTEIGER

@<TRIPOS>ATOM
      1 P1         -2.2762   -0.1134   -0.0579 P.3     1  <1>         0.4727
      2 O1         -0.7290   -0.3247    0.3522 O.3     1  <1>        -0.2816
      3 O2          1.5164   -1.8825    0.1383 O.3     1  <1>        -0.4795
      4 O3         -2.8281    0.9345    1.0433 O.3     1  <1>        -0.3026
      5 O4         -2.9538   -1.5124    0.3877 O.3     1  <1>        -0.3026
      6 O5          3.2311   -0.6405   -0.6723 O.2     1  <1>        -0.2492
      7 O6         -2.5093    0.2766   -1.4882 O.2     1  <1>        -0.2275
      8 N1          2.4540    1.5833    0.6060 N.3     1  <1>        -0.3163
      9 C1          0.1624    0.7802    0.2115 C.3     1  <1>         0.0927
     10 C2          1.5598    0.4301    0.7468 C.3     1  <1>         0.1299
     11 C3          0.1695    1.1885   -1.2563 C.3     1  <1>        -0.0361
     12 C4          2.2032   -0.7197   -0.0112 C.2     1  <1>         0.3243
     13 H1         -0.2338    1.6108    0.8092 H       1  <1>         0.0620
     14 H2          1.5047    0.1376    1.8018 H       1  <1>         0.0600
     15 H3          1.0270    1.8191   -1.5109 H       1  <1>         0.0255
     16 H4         -0.7088    1.7945   -1.4971 H       1  <1>         0.0255
     17 H5          0.1768    0.3191   -1.9225 H       1  <1>         0.0255
     18 H6          3.3484    1.3776    1.0500 H       1  <1>         0.1190
     19 H7          2.0648    2.3793    1.1100 H       1  <1>         0.1190
     20 H8          1.9407   -2.6223   -0.3463 H       1  <1>         0.2951
     21 H9         -3.7469    1.2681    0.9621 H       1  <1>         0.2220
     22 H10        -3.8931   -1.6788    0.1590 H       1  <1>         0.2220
@<TRIPOS>BOND
     1     1     2    1
     2     1     4    1
     3     1     5    1
     4     1     7    2
     5     2     9    1
     6     3    12    1
     7     3    20    1
     8     4    21    1
     9     5    22    1
    10     6    12    2
    11     8    10    1
    12     8    18    1
    13     8    19    1
    14     9    10    1
    15     9    11    1
    16     9    13    1
    17    10    12    1
    18    10    14    1
    19    11    15    1
    20    11    16    1
    21    11    17    1
