@<TRIPOS>MOLECULE
phosphotyrosine
 29 29 0 0 0
SMALL
GASTEIGER

@<TRIPOS>ATOM
      1 P           4.0771    0.0058   -0.3905 P.3     1  UNL1        0.5280
      2 O           2.8507   -0.8518    0.2270 O.3     1  UNL1       -0.4040
      3 O          -3.0562   -1.5815   -1.1214 O.3     1  UNL1       -0.4795
      4 OXT        -4.9044   -1.0746    0.0922 O.2     1  UNL1       -0.2492
      5 O           4.3269    1.1770    0.6968 O.3     1  UNL1       -0.2930
      6 O           5.3463   -0.9728   -0.1663 O.3     1  UNL1       -0.2930
      7 O           3.8892    0.4631   -1.8079 O.2     1  UNL1       -0.2156
      8 N          -4.4832    1.5822   -0.4506 N.3     1  UNL1       -0.3181
      9 C          -2.4516    0.9920    0.7902 C.3     1  UNL1       -0.0020
     10 CA         -3.3207    0.6970   -0.4422 C.3     1  UNL1        0.1072
     11 C          -1.0312    0.4981    0.6391 C.ar    1  UNL1       -0.0451
     12 C          -0.7134   -0.7854    1.0504 C.ar    1  UNL1       -0.0550
     13 C          -0.0763    1.3393    0.0926 C.ar    1  UNL1       -0.0550
     14 C           1.5717   -0.4067    0.3625 C.ar    1  UNL1        0.1321
     15 C           0.5976   -1.2411    0.9111 C.ar    1  UNL1       -0.0191
     16 C           1.2346    0.8836   -0.0468 C.ar    1  UNL1       -0.0191
     17 C          -3.8569   -0.7242   -0.4363 C.2     1  UNL1        0.3220
     18 H          -2.8966    0.5542    1.6944 H       1  UNL1        0.0334
     19 H          -2.4122    2.0739    0.9801 H       1  UNL1        0.0334
     20 HA         -2.7730    0.8632   -1.3770 H       1  UNL1        0.0577
     21 H          -1.4634   -1.4421    1.4813 H       1  UNL1        0.0621
     22 H          -0.3303    2.3448   -0.2304 H       1  UNL1        0.0621
     23 H           0.8544   -2.2468    1.2322 H       1  UNL1        0.0654
     24 H           1.9576    1.5686   -0.4751 H       1  UNL1        0.0654
     25 H1         -4.1731    2.5522   -0.5015 H       1  UNL1        0.1190
     26 H2         -4.9884    1.4987    0.4315 H       1  UNL1        0.1190
     27 H          -3.4154   -2.4943   -1.1239 H       1  UNL1        0.2951
     28 H           4.9946    1.8691    0.5034 H       1  UNL1        0.2231
     29 H           6.2125   -0.7214   -0.5518 H       1  UNL1        0.2231
@<TRIPOS>BOND
     1     1     2    1
     2     1     5    1
     3     1     6    1
     4     1     7    2
     5     2    14    1
     6     3    17    1
     7     3    27    1
     8     4    17    2
     9     5    28    1
    10     6    29    1
    11     8    10    1
    12     8    25    1
    13     8    26    1
    14     9    10    1
    15     9    11    1
    16     9    18    1
    17     9    19    1
    18    10    17    1
    19    10    20    1
    20    11    12   ar
    21    11    13   ar
    22    12    15   ar
    23    12    21    1
    24    13    16   ar
    25    13    22    1
    26    14    15   ar
    27    14    16   ar
    28    15    23    1
    29    16    24    1
