@<TRIPOS>MOLECULE
pyroglutamic_acid
 16 16 0 0 0
SMALL
GASTEIGER

@<TRIPOS>ATOM
      1 O          -2.6950    0.7781   -0.1784 O.2     1  UNL1       -0.2758
      2 O           2.6693   -0.3956   -0.1723 O.3     1  UNL1       -0.4793
      3 OXT         1.4235    1.4791   -0.5324 O.2     1  UNL1       -0.2489
      4 N          -0.6095    0.5377    0.8584 N.am    1  UNL1       -0.3023
      5 CA          0.5210   -0.3427    0.7694 C.3     1  UNL1        0.1206
      6 C          -0.0322   -1.5721    0.0739 C.3     1  UNL1       -0.0159
      7 C          -1.1951   -1.0410   -0.7636 C.3     1  UNL1        0.0262
      8 C          -1.6378    0.1900   -0.0109 C.2     1  UNL1        0.2137
      9 C           1.5557    0.3666   -0.0442 C.2     1  UNL1        0.3253
     10 HA          0.9058   -0.5405    1.7736 H       1  UNL1        0.0614
     11 H          -0.4259   -2.2694    0.8245 H       1  UNL1        0.0293
     12 H           0.6956   -2.1166   -0.5351 H       1  UNL1        0.0293
     13 H          -2.0073   -1.7681   -0.8383 H       1  UNL1        0.0359
     14 H          -0.8643   -0.7424   -1.7632 H       1  UNL1        0.0359
     15 H          -0.6441    1.3538    1.4615 H       1  UNL1        0.1495
     16 H           3.3604    0.0521   -0.7054 H       1  UNL1        0.2951
@<TRIPOS>BOND
     1     1     8    2
     2     2     9    1
     3     2    16    1
     4     3     9    2
     5     4     5    1
     6     4     8   am
     7     4    15    1
     8     5     6    1
     9     5     9    1
    10     5    10    1
    11     6     7    1
    12     6    11    1
    13     6    12    1
    14     7     8    1
    15     7    13    1
    16     7    14    1
