@<TRIPOS>MOLECULE
pyrrolysine_pyl
 39 39 0 0 0
SMALL
GASTEIGER

@<TRIPOS>ATOM
      1 O1          1.1640    0.9154   -1.6866 O.2     1  <1>        -0.2735
      2 O2         -1.7494   -1.6452   -1.0019 O.3     1  <1>        -0.4795
      3 O3         -2.8842   -2.2105    0.8781 O.2     1  <1>        -0.2493
      4 N1          3.0788   -0.7797   -1.2600 N.2     1  <1>        -0.2829
      5 N2          1.4176    2.0463    0.3339 N.am    1  <1>        -0.3135
      6 N3         -4.9057   -0.4710    0.1249 N.3     1  <1>        -0.3184
      7 C1          2.4718   -0.6587    1.0729 C.3     1  <1>        -0.0082
      8 C2          2.8368    0.1720   -0.1584 C.3     1  <1>         0.1290
      9 C3          1.9363   -1.9481    0.4739 C.3     1  <1>        -0.0127
     10 C4          3.6969   -0.9185    1.9509 C.3     1  <1>        -0.0597
     11 C5          1.7175    1.0614   -0.6000 C.2     1  <1>         0.2378
     12 C6         -0.9684    2.5999    0.6542 C.3     1  <1>        -0.0373
     13 C7         -1.5514    1.3604   -0.0366 C.3     1  <1>        -0.0497
     14 C8          2.5819   -1.9077   -0.8690 C.2     1  <1>         0.0009
     15 C9          0.3996    3.0386    0.1397 C.3     1  <1>         0.0117
     16 C10        -2.9769    1.0090    0.4011 C.3     1  <1>        -0.0273
     17 C11        -3.5428   -0.2071   -0.3441 C.3     1  <1>         0.1032
     18 C12        -2.7225   -1.4564   -0.0731 C.2     1  <1>         0.3217
     19 H1          1.7049   -0.1930    1.7018 H       1  <1>         0.0327
     20 H2          3.7299    0.7864    0.0041 H       1  <1>         0.0643
     21 H3          2.2228   -2.8510    1.0180 H       1  <1>         0.0325
     22 H4          0.8514   -1.9298    0.3397 H       1  <1>         0.0325
     23 H5          4.0869    0.0223    2.3535 H       1  <1>         0.0233
     24 H6          3.4352   -1.5627    2.7969 H       1  <1>         0.0233
     25 H7          4.5021   -1.4067    1.3912 H       1  <1>         0.0233
     26 H8         -0.9030    2.4026    1.7317 H       1  <1>         0.0280
     27 H9         -1.6663    3.4368    0.5291 H       1  <1>         0.0280
     28 H10        -1.5416    1.5175   -1.1219 H       1  <1>         0.0266
     29 H11        -0.8957    0.5104    0.1775 H       1  <1>         0.0266
     30 H12         2.5887   -2.8060   -1.5026 H       1  <1>         0.0778
     31 H13         0.7217    3.9395    0.6724 H       1  <1>         0.0462
     32 H14         0.3377    3.2842   -0.9264 H       1  <1>         0.0462
     33 H15        -2.9736    0.8203    1.4830 H       1  <1>         0.0286
     34 H16        -3.6254    1.8780    0.2308 H       1  <1>         0.0286
     35 H17         1.9481    2.0827    1.1995 H       1  <1>         0.1487
     36 H18        -3.5757   -0.0238   -1.4240 H       1  <1>         0.0574
     37 H19        -5.4883    0.3490   -0.0403 H       1  <1>         0.1190
     38 H20        -5.3157   -1.2246   -0.4258 H       1  <1>         0.1190
     39 H21        -1.2203   -2.4506   -0.8184 H       1  <1>         0.2951
@<TRIPOS>BOND
     1     1    11    2
     2     2    18    1
     3     2    39    1
     4     3    18    2
     5     4     8    1
     6     4    14    2
     7     5    11   am
     8     5    15    1
     9     5    35    1
    10     6    17    1
    11     6    37    1
    12     6    38    1
    13     7     8    1
    14     7     9    1
    15     7    10    1
    16     7    19    1
    17     8    11    1
    18     8    20    1
    19     9    14    1
    20     9    21    1
    21     9    22    1
    22    10    23    1
    23    10    24    1
    24    10    25    1
    25    12    13    1
    26    12    15    1
    27    12    26    1
    28    12    27    1
    29    13    16    1
    30    13    28    1
    31    13    29    1
    32    14    30    1
    33    15    31    1
    34    15    32    1
    35    16    17    1
    36    16    33    1
    37    16    34    1
    38    17    18    1
    39    17    36    1
