@<TRIPOS>MOLECULE
s_adenosylmethionine
 49 51 0 0 0
SMALL
GASTEIGER

@<TRIPOS>ATOM
      1 S           1.6488   -0.5573    1.8263 S.3     1  UNL1       -0.0106
      2 O          -1.1285   -1.6747    1.0647 O.3     1  UNL1       -0.3433
      3 O          -0.9934   -4.4048   -0.2869 O.3     1  UNL1       -0.3863
      4 O          -2.4488   -2.9210   -2.0376 O.3     1  UNL1       -0.3847
      5 O           4.6477    0.2211   -1.9915 O.co2   1  UNL1       -0.5482
      6 OXT         6.4653    0.1486   -0.6103 O.co2   1  UNL1       -0.5482
      7 N          -2.8850   -0.5023   -0.0171 N.ar    1  UNL1       -0.2855
      8 N          -4.5571    0.9428   -0.3231 N.ar    1  UNL1       -0.2306
      9 N          -1.0627    1.0526    0.3881 N.ar    1  UNL1       -0.2159
     10 N           4.5333    2.7828   -0.9036 N.3     1  UNL1       -0.3225
     11 N          -1.8307    3.3669    0.2862 N.ar    1  UNL1       -0.2188
     12 N          -4.1094    3.9459   -0.1601 N.pl3   1  UNL1       -0.3413
     13 C           0.0209   -2.4083    0.5819 C.3     1  UNL1        0.1340
     14 C          -0.4351   -3.1485   -0.6716 C.3     1  UNL1        0.1158
     15 C          -1.5345   -2.2467   -1.1974 C.3     1  UNL1        0.1286
     16 C          -2.1883   -1.7817    0.0949 C.3     1  UNL1        0.1668
     17 C           1.1437   -1.4169    0.3103 C.3     1  UNL1        0.1381
     18 C           3.3034   -0.1047    1.2573 C.3     1  UNL1        0.1114
     19 C          -2.3409    0.7441    0.1220 C.ar    1  UNL1        0.1674
     20 C          -4.2184   -0.3289   -0.2843 C.ar    1  UNL1        0.1004
     21 C           3.2580    1.1900    0.4501 C.3     1  UNL1        0.0127
     22 C           2.1412   -2.0367    2.7403 C.3     1  UNL1        0.0995
     23 C          -3.3933    1.6247   -0.0707 C.ar    1  UNL1        0.1473
     24 CA          4.6443    1.5876   -0.0646 C.3     1  UNL1        0.0491
     25 C          -3.1022    2.9822    0.0200 C.ar    1  UNL1        0.1472
     26 C          -0.9036    2.3925    0.4512 C.ar    1  UNL1        0.1205
     27 C           5.3250    0.5508   -0.9747 C.2     1  UNL1        0.0586
     28 H           0.2891   -3.1314    1.3558 H       1  UNL1        0.0671
     29 H           0.3542   -3.3429   -1.4034 H       1  UNL1        0.0648
     30 H          -1.1041   -1.4046   -1.7516 H       1  UNL1        0.0665
     31 H          -2.9212   -2.5047    0.4745 H       1  UNL1        0.0866
     32 H           1.9986   -1.9525   -0.1147 H       1  UNL1        0.0867
     33 H           0.8383   -0.6487   -0.4054 H       1  UNL1        0.0867
     34 H           3.7496   -0.9281    0.6924 H       1  UNL1        0.0840
     35 H           3.9210    0.0539    2.1486 H       1  UNL1        0.0840
     36 H          -0.2699   -4.9456    0.0736 H       1  UNL1        0.2100
     37 H          -2.7843   -3.6962   -1.5561 H       1  UNL1        0.2101
     38 H          -4.8888   -1.1628   -0.4418 H       1  UNL1        0.1030
     39 H           2.8491    2.0001    1.0686 H       1  UNL1        0.0329
     40 H           2.5673    1.0694   -0.3950 H       1  UNL1        0.0329
     41 H           2.6743   -2.7454    2.1018 H       1  UNL1        0.0803
     42 H           1.2597   -2.5081    3.1801 H       1  UNL1        0.0803
     43 H           2.7992   -1.7335    3.5596 H       1  UNL1        0.0803
     44 HA          5.2968    1.8148    0.7866 H       1  UNL1        0.0521
     45 H           0.1035    2.7361    0.6621 H       1  UNL1        0.1048
     46 H1          5.4518    3.0533   -1.2525 H       1  UNL1        0.1188
     47 H2          3.9529    2.5901   -1.7189 H       1  UNL1        0.1188
     48 H          -3.8729    4.9262   -0.0896 H       1  UNL1        0.1438
     49 H          -5.0589    3.6613   -0.3591 H       1  UNL1        0.1438
@<TRIPOS>UNITY_ATOM_ATTR
1 1
charge 1
5 1
charge -1
@<TRIPOS>BOND
     1     1    17    1
     2     1    18    1
     3     1    22    1
     4     2    13    1
     5     2    16    1
     6     3    14    1
     7     3    36    1
     8     4    15    1
     9     4    37    1
    10     5    27   ar
    11     6    27   ar
    12     7    16    1
    13     7    19   ar
    14     7    20   ar
    15     8    20   ar
    16     8    23   ar
    17     9    19   ar
    18     9    26   ar
    19    10    24    1
    20    10    46    1
    21    10    47    1
    22    11    25   ar
    23    11    26   ar
    24    12    25    1
    25    12    48    1
    26    12    49    1
    27    13    14    1
    28    13    17    1
    29    13    28    1
    30    14    15    1
    31    14    29    1
    32    15    16    1
    33    15    30    1
    34    16    31    1
    35    17    32    1
    36    17    33    1
    37    18    21    1
    38    18    34    1
    39    18    35    1
    40    19    23   ar
    41    20    38    1
    42    21    24    1
    43    21    39    1
    44    21    40    1
    45    22    41    1
    46    22    42    1
    47    22    43    1
    48    23    25   ar
    49    24    27    1
    50    24    44    1
    51    26    45    1
