@<TRIPOS>MOLECULE
sarcosine
 13 12 0 0 0
SMALL
GASTEIGER

@<TRIPOS>ATOM
      1 O           2.0721   -0.8444   -0.0108 O.3     1  UNL1       -0.4797
      2 O           1.1963    1.2521   -0.0009 O.2     1  UNL1       -0.2496
      3 N          -1.3379    0.3931   -0.0078 N.3     1  UNL1       -0.3097
      4 C          -0.3049   -0.6337    0.0088 C.3     1  UNL1        0.0940
      5 C          -2.6663   -0.2045   -0.0012 C.3     1  UNL1       -0.0153
      6 C           1.0407    0.0376    0.0119 C.2     1  UNL1        0.3187
      7 H          -0.3728   -1.2688   -0.8809 H       1  UNL1        0.0539
      8 H          -0.3813   -1.2435    0.9152 H       1  UNL1        0.0539
      9 H          -1.2363    0.9650   -0.8462 H       1  UNL1        0.1221
     10 H          -2.8286   -0.8327   -0.8832 H       1  UNL1        0.0388
     11 H          -3.4220    0.5870   -0.0079 H       1  UNL1        0.0388
     12 H          -2.8261   -0.8045    0.9005 H       1  UNL1        0.0388
     13 H           2.9415   -0.3904   -0.0270 H       1  UNL1        0.2951
@<TRIPOS>BOND
     1     1     6    1
     2     1    13    1
     3     2     6    2
     4     3     4    1
     5     3     5    1
     6     3     9    1
     7     4     6    1
     8     4     7    1
     9     4     8    1
    10     5    10    1
    11     5    11    1
    12     5    12    1
