@<TRIPOS>MOLECULE
selenocysteine_sec
 14 13 0 0 0
SMALL
GASTEIGER

@<TRIPOS>ATOM
      1 SE          2.9916    4.2728    1.0892 Se      1  UNL1        0.0000
      2 O          -0.5620    5.0237   -0.0320 O.3     1  UNL1        0.0000
      3 OXT         0.5095    4.4625   -1.8933 O.2     1  UNL1        0.0000
      4 N           0.2476    1.7400   -0.8740 N.3     1  UNL1        0.0000
      5 CA          0.7364    2.8971   -0.1219 C.3     1  UNL1        0.0000
      6 C           2.2709    2.8743   -0.0775 C.3     1  UNL1        0.0000
      7 C           0.2180    4.1794   -0.7418 C.2     1  UNL1        0.0000
      8 HA          0.3657    2.8110    0.9228 H       1  UNL1        0.0000
      9 H           2.7169    2.9615   -1.0910 H       1  UNL1        0.0000
     10 H           2.6013    1.9067    0.3489 H       1  UNL1        0.0000
     11 H1          0.5671    1.7899   -1.8695 H       1  UNL1        0.0000
     12 H2         -0.7990    1.7321   -0.8587 H       1  UNL1        0.0000
     13 H           2.4493    5.4079    0.2095 H       1  UNL1        0.0000
     14 H          -0.8121    4.8399    0.8844 H       1  UNL1        0.0000
@<TRIPOS>BOND
     1     1     6    1
     2     1    13    1
     3     2     7    1
     4     2    14    1
     5     3     7    2
     6     4    11    1
     7     4    12    1
     8     5     7    1
     9     5     8    1
    10     6     9    1
    11     6    10    1
    12     5     6    1
    13     5     4    1
