@<TRIPOS>MOLECULE
taurine
 14 13 0 0 0
SMALL
GASTEIGER

@<TRIPOS>ATOM
      1 S           1.0051   -0.1135    0.0174 S.O2    1  UNL1        0.0809
      2 O           1.8821    1.2404   -0.2242 O.3     1  UNL1       -0.2539
      3 O           1.1465   -0.9745   -1.1426 O.2     1  UNL1       -0.1474
      4 O           1.2613   -0.6011    1.3605 O.2     1  UNL1       -0.1474
      5 N          -3.0095    0.2190   -0.0003 N.3     1  UNL1       -0.3284
      6 C          -0.5919    0.6381   -0.0192 C.3     1  UNL1        0.1048
      7 C          -1.6936   -0.4084    0.0082 C.3     1  UNL1        0.0149
      8 H          -0.6598    1.3111    0.8420 H       1  UNL1        0.0538
      9 H          -0.6527    1.2314   -0.9381 H       1  UNL1        0.0538
     10 H          -1.6083   -1.0765   -0.8560 H       1  UNL1        0.0438
     11 H          -1.6019   -1.0300    0.9055 H       1  UNL1        0.0438
     12 H          -3.7281   -0.5027   -0.0366 H       1  UNL1        0.1183
     13 H          -3.1192    0.7747   -0.8476 H       1  UNL1        0.1183
     14 H           1.8365    1.6189   -1.1335 H       1  UNL1        0.2445
@<TRIPOS>BOND
     1     1     2    1
     2     1     3    2
     3     1     4    2
     4     1     6    1
     5     2    14    1
     6     5     7    1
     7     5    12    1
     8     5    13    1
     9     6     7    1
    10     6     8    1
    11     6     9    1
    12     7    10    1
    13     7    11    1
