@<TRIPOS>MOLECULE
trans_4_hydroxyproline
 18 18 0 0 0
SMALL
GASTEIGER

@<TRIPOS>ATOM
      1 OD         -2.8250   -0.4391    0.2300 O.3     1  HYP1       -0.3905
      2 O           2.3771   -1.1743   -0.0743 O.3     1  HYP1       -0.4795
      3 OXT         2.0942    1.0641   -0.3992 O.2     1  HYP1       -0.2492
      4 N          -0.3048    1.0741    0.7420 N.3     1  HYP1       -0.3016
      5 CB         -0.5428   -1.1562   -0.1307 C.3     1  HYP1        0.0002
      6 CA          0.3631   -0.2314    0.6779 C.3     1  HYP1        0.1082
      7 CG         -1.6862   -0.2697   -0.6076 C.3     1  HYP1        0.0696
      8 CD         -1.1616    1.1441   -0.4514 C.3     1  HYP1        0.0227
      9 C           1.6861   -0.0115    0.0132 C.2     1  HYP1        0.3220
     10 HB1        -0.0216   -1.5812   -0.9961 H       1  HYP1        0.0311
     11 HB2        -0.9133   -1.9800    0.4893 H       1  HYP1        0.0311
     12 HA          0.5408   -0.6045    1.6917 H       1  HYP1        0.0577
     13 HG         -1.9817   -0.5009   -1.6355 H       1  HYP1        0.0606
     14 HD1        -0.5620    1.4323   -1.3224 H       1  HYP1        0.0449
     15 HD2        -1.9545    1.8834   -0.3048 H       1  HYP1        0.0449
     16 H           0.3525    1.8507    0.7764 H       1  HYP1        0.1228
     17 HD         -3.5184    0.1602   -0.0951 H       1  HYP1        0.2098
     18 H           3.2475   -1.0514   -0.5096 H       1  HYP1        0.2951
@<TRIPOS>BOND
     1     1     7    1
     2     1    17    1
     3     2     9    1
     4     2    18    1
     5     3     9    2
     6     4     6    1
     7     4     8    1
     8     4    16    1
     9     5     6    1
    10     5     7    1
    11     5    10    1
    12     5    11    1
    13     6     9    1
    14     6    12    1
    15     7     8    1
    16     7    13    1
    17     8    14    1
    18     8    15    1
