@<TRIPOS>MOLECULE
trimethyllysine
 33 32 0 0 0
SMALL
GASTEIGER

@<TRIPOS>ATOM
      1 O1          3.2962   -0.9260   -1.3124 O.co2   1  <1>        -0.5482
      2 O2          3.6844   -1.4935    0.8656 O.co2   1  <1>        -0.5482
      3 N1         -3.4755   -0.1306   -0.0319 N.4     1  <1>         0.2369
      4 N2          3.7681    1.6000   -0.1576 N.3     1  <1>        -0.3226
      5 C1         -2.1454   -0.5544    0.4647 C.3     1  <1>        -0.0309
      6 C2         -1.0702    0.4382    0.0401 C.3     1  <1>        -0.0124
      7 C3          0.3405    0.0335    0.4793 C.3     1  <1>        -0.0465
      8 C4         -3.8477    1.2558    0.5142 C.3     1  <1>        -0.0418
      9 C5         -3.4887   -0.0562   -1.5658 C.3     1  <1>        -0.0418
     10 C6         -4.5646   -1.1213    0.4051 C.3     1  <1>        -0.0418
     11 C7          1.3878    1.0262   -0.0407 C.3     1  <1>        -0.0323
     12 C8          2.8043    0.6512    0.4054 C.3     1  <1>         0.0449
     13 C9          3.3109   -0.7228   -0.0660 C.2     1  <1>         0.0584
     14 H1         -1.9340   -1.5530    0.0634 H       1  <1>         0.0815
     15 H2         -2.1945   -0.6281    1.5578 H       1  <1>         0.0815
     16 H3         -1.2616    1.4300    0.4619 H       1  <1>         0.0317
     17 H4         -1.0414    0.5455   -1.0483 H       1  <1>         0.0317
     18 H5          0.3844   -0.0131    1.5740 H       1  <1>         0.0268
     19 H6          0.5583   -0.9725    0.1020 H       1  <1>         0.0268
     20 H7         -3.7112    1.2471    1.5994 H       1  <1>         0.0778
     21 H8         -3.2286    2.0208    0.0396 H       1  <1>         0.0778
     22 H9         -4.8969    1.4472    0.2673 H       1  <1>         0.0778
     23 H10        -2.9068    0.8047   -1.9029 H       1  <1>         0.0778
     24 H11        -3.0845   -0.9927   -1.9608 H       1  <1>         0.0778
     25 H12        -4.5264    0.0725   -1.8902 H       1  <1>         0.0778
     26 H13        -5.5296   -0.7766    0.0223 H       1  <1>         0.0778
     27 H14        -4.3153   -2.1031   -0.0077 H       1  <1>         0.0778
     28 H15        -4.5743   -1.1542    1.4985 H       1  <1>         0.0778
     29 H16         1.3319    1.0569   -1.1368 H       1  <1>         0.0284
     30 H17         1.1437    2.0342    0.3187 H       1  <1>         0.0284
     31 H18         2.8660    0.7037    1.4991 H       1  <1>         0.0520
     32 H19         3.5351    2.5434    0.1514 H       1  <1>         0.1188
     33 H20         3.6862    1.6145   -1.1742 H       1  <1>         0.1188
@<TRIPOS>UNITY_ATOM_ATTR
1 1
charge -1
3 1
charge 1
@<TRIPOS>BOND
     1     1    13   ar
     2     2    13   ar
     3     3     5    1
     4     3     8    1
     5     3     9    1
     6     3    10    1
     7     4    12    1
     8     4    32    1
     9     4    33    1
    10     5     6    1
    11     5    14    1
    12     5    15    1
    13     6     7    1
    14     6    16    1
    15     6    17    1
    16     7    11    1
    17     7    18    1
    18     7    19    1
    19     8    20    1
    20     8    21    1
    21     8    22    1
    22     9    23    1
    23     9    24    1
    24     9    25    1
    25    10    26    1
    26    10    27    1
    27    10    28    1
    28    11    12    1
    29    11    29    1
    30    11    30    1
    31    12    13    1
    32    12    31    1
