@<TRIPOS>MOLECULE
10450
 14 14 0 0 0
SMALL
GASTEIGER

@<TRIPOS>ATOM
      1 O          -1.1886   -0.6952   -0.2317 O.3     1  UNL1       -0.3540
      2 O           1.1886   -0.6949   -0.2319 O.3     1  UNL1       -0.3540
      3 C          -0.0001    1.4104   -0.2161 C.3     1  UNL1       -0.0057
      4 C          -1.2488    0.6565    0.2232 C.3     1  UNL1        0.0525
      5 C           1.2487    0.6566    0.2234 C.3     1  UNL1        0.0525
      6 C           0.0002   -1.3333    0.2331 C.3     1  UNL1        0.1481
      7 H           0.0000    1.4660   -1.3117 H       1  UNL1        0.0310
      8 H          -0.0002    2.4312    0.1779 H       1  UNL1        0.0310
      9 H          -1.3555    0.6660    1.3142 H       1  UNL1        0.0561
     10 H          -2.1434    1.1196   -0.2045 H       1  UNL1        0.0561
     11 H           2.1433    1.1199   -0.2041 H       1  UNL1        0.0561
     12 H           1.3551    0.6658    1.3145 H       1  UNL1        0.0561
     13 H           0.0002   -1.3932    1.3286 H       1  UNL1        0.0871
     14 H           0.0003   -2.3559   -0.1552 H       1  UNL1        0.0871
@<TRIPOS>BOND
     1     1     4    1
     2     1     6    1
     3     2     5    1
     4     2     6    1
     5     3     4    1
     6     3     5    1
     7     3     7    1
     8     3     8    1
     9     4     9    1
    10     4    10    1
    11     5    11    1
    12     5    12    1
    13     6    13    1
    14     6    14    1
