@<TRIPOS>MOLECULE
12586
 11 11 0 0 0
SMALL
GASTEIGER

@<TRIPOS>ATOM
      1 O           1.1661   -0.3604    0.1332 O.3     1  UNL1       -0.3518
      2 O          -1.1664   -0.3600   -0.1327 O.3     1  UNL1       -0.3518
      3 C           0.7210    0.9491   -0.2152 C.3     1  UNL1        0.0738
      4 C          -0.7205    0.9496    0.2150 C.3     1  UNL1        0.0738
      5 C          -0.0001   -1.1782   -0.0003 C.3     1  UNL1        0.1483
      6 H           0.8175    1.0634   -1.3004 H       1  UNL1        0.0584
      7 H           1.3243    1.7104    0.2851 H       1  UNL1        0.0584
      8 H          -0.8171    1.0644    1.3001 H       1  UNL1        0.0584
      9 H          -1.3235    1.7110   -0.2857 H       1  UNL1        0.0584
     10 H           0.0961   -1.8114   -0.8873 H       1  UNL1        0.0871
     11 H          -0.0966   -1.8125    0.8860 H       1  UNL1        0.0871
@<TRIPOS>BOND
     1     1     3    1
     2     1     5    1
     3     2     4    1
     4     2     5    1
     5     3     4    1
     6     3     6    1
     7     3     7    1
     8     4     8    1
     9     4     9    1
    10     5    10    1
    11     5    11    1
