@<TRIPOS>MOLECULE
9229
 15 16 0 0 0
SMALL
GASTEIGER

@<TRIPOS>ATOM
      1 O           1.5398    1.2050    0.0002 O.3     1  UNL1       -0.4526
      2 O           1.5400   -1.2049    0.0006 O.3     1  UNL1       -0.4526
      3 C           0.2810    0.6881   -0.0006 C.ar    1  UNL1        0.1662
      4 C           0.2810   -0.6881   -0.0007 C.ar    1  UNL1        0.1662
      5 C           2.3324    0.0000    0.0002 C.3     1  UNL1        0.2332
      6 C          -0.8924    1.4141   -0.0001 C.ar    1  UNL1       -0.0161
      7 C          -0.8923   -1.4142   -0.0004 C.ar    1  UNL1       -0.0161
      8 C          -2.0948    0.7030    0.0005 C.ar    1  UNL1       -0.0581
      9 C          -2.0947   -0.7031    0.0004 C.ar    1  UNL1       -0.0581
     10 H           2.9708    0.0000   -0.8908 H       1  UNL1        0.1166
     11 H           2.9712    0.0003    0.8908 H       1  UNL1        0.1166
     12 H          -0.8882    2.4981    0.0002 H       1  UNL1        0.0655
     13 H          -0.8880   -2.4982   -0.0001 H       1  UNL1        0.0655
     14 H          -3.0397    1.2396    0.0010 H       1  UNL1        0.0619
     15 H          -3.0395   -1.2399    0.0010 H       1  UNL1        0.0619
@<TRIPOS>BOND
     1     1     3    1
     2     1     5    1
     3     2     4    1
     4     2     5    1
     5     3     4   ar
     6     3     6   ar
     7     4     7   ar
     8     5    10    1
     9     5    11    1
    10     6     8   ar
    11     6    12    1
    12     7     9   ar
    13     7    13    1
    14     8     9   ar
    15     8    14    1
    16     9    15    1
