@<TRIPOS>MOLECULE
8081
 12 12 0 0 0
SMALL
GASTEIGER

@<TRIPOS>ATOM
      1 O          -1.2278    0.6039   -0.2213 O.3     1  UNL1       -0.3281
      2 O           0.0909   -1.3652   -0.2213 O.3     1  UNL1       -0.3281
      3 O           1.1368    0.7613   -0.2213 O.3     1  UNL1       -0.3281
      4 C          -1.1187   -0.7493    0.2213 C.3     1  UNL1        0.1535
      5 C          -0.0894    1.3435    0.2213 C.3     1  UNL1        0.1535
      6 C           1.2083   -0.5942    0.2212 C.3     1  UNL1        0.1535
      7 H          -1.1939   -0.7996    1.3146 H       1  UNL1        0.0873
      8 H          -1.9573   -1.3109   -0.2000 H       1  UNL1        0.0873
      9 H          -0.1565    2.3505   -0.1999 H       1  UNL1        0.0873
     10 H          -0.0955    1.4337    1.3146 H       1  UNL1        0.0873
     11 H           1.2896   -0.6341    1.3145 H       1  UNL1        0.0873
     12 H           2.1139   -1.0397   -0.2001 H       1  UNL1        0.0873
@<TRIPOS>BOND
     1     1     4    1
     2     1     5    1
     3     2     4    1
     4     2     6    1
     5     3     5    1
     6     3     6    1
     7     4     7    1
     8     4     8    1
     9     5     9    1
    10     5    10    1
    11     6    11    1
    12     6    12    1
