@<TRIPOS>MOLECULE
31275
 14 14 0 0 0
SMALL
GASTEIGER

@<TRIPOS>ATOM
      1 O          -1.3826   -0.0004    0.2432 O.3     1  UNL1       -0.3752
      2 O           1.3826    0.0004   -0.2433 O.3     1  UNL1       -0.3752
      3 C           0.7231    1.1764    0.2324 C.3     1  UNL1        0.0711
      4 C          -0.7239    1.1760   -0.2324 C.3     1  UNL1        0.0711
      5 C           0.7239   -1.1760    0.2324 C.3     1  UNL1        0.0711
      6 C          -0.7232   -1.1764   -0.2324 C.3     1  UNL1        0.0711
      7 H           1.2531    2.0486   -0.1615 H       1  UNL1        0.0583
      8 H           0.7883    1.1985    1.3264 H       1  UNL1        0.0583
      9 H           0.7892   -1.1981    1.3263 H       1  UNL1        0.0583
     10 H           1.2544   -2.0478   -0.1615 H       1  UNL1        0.0583
     11 H          -1.2543    2.0478    0.1616 H       1  UNL1        0.0583
     12 H          -0.7891    1.1982   -1.3263 H       1  UNL1        0.0583
     13 H          -0.7884   -1.1986   -1.3263 H       1  UNL1        0.0583
     14 H          -1.2531   -2.0486    0.1615 H       1  UNL1        0.0583
@<TRIPOS>BOND
     1     1     4    1
     2     1     6    1
     3     2     3    1
     4     2     5    1
     5     3     4    1
     6     3     7    1
     7     3     8    1
     8     4    11    1
     9     4    12    1
    10     5     6    1
    11     5     9    1
    12     5    10    1
    13     6    13    1
    14     6    14    1
