@<TRIPOS>MOLECULE
10301
 18 19 0 0 0
SMALL
GASTEIGER

@<TRIPOS>ATOM
      1 O           1.1879   -1.4406   -0.0495 O.3     1  UNL1       -0.4849
      2 O           1.1877    1.4406    0.0495 O.3     1  UNL1       -0.4849
      3 C           2.3253   -0.6717    0.3514 C.3     1  UNL1        0.1237
      4 C           2.3251    0.6719   -0.3516 C.3     1  UNL1        0.1237
      5 C           0.0362   -0.6980   -0.0295 C.ar    1  UNL1        0.1621
      6 C           0.0361    0.6979    0.0298 C.ar    1  UNL1        0.1621
      7 C          -1.1710   -1.3951   -0.0815 C.ar    1  UNL1       -0.0163
      8 C          -1.1712    1.3951    0.0816 C.ar    1  UNL1       -0.0163
      9 C          -2.3779   -0.6963   -0.0436 C.ar    1  UNL1       -0.0581
     10 C          -2.3780    0.6962    0.0434 C.ar    1  UNL1       -0.0581
     11 H           3.2218   -1.2400    0.0849 H       1  UNL1        0.0731
     12 H           2.3040   -0.5573    1.4422 H       1  UNL1        0.0731
     13 H           3.2216    1.2403   -0.0852 H       1  UNL1        0.0731
     14 H           2.3036    0.5574   -1.4424 H       1  UNL1        0.0731
     15 H          -1.1803   -2.4801   -0.1404 H       1  UNL1        0.0655
     16 H          -1.1805    2.4801    0.1404 H       1  UNL1        0.0655
     17 H          -3.3191   -1.2375   -0.0774 H       1  UNL1        0.0619
     18 H          -3.3193    1.2372    0.0770 H       1  UNL1        0.0619
@<TRIPOS>BOND
     1     1     3    1
     2     1     5    1
     3     2     4    1
     4     2     6    1
     5     3     4    1
     6     3    11    1
     7     3    12    1
     8     4    13    1
     9     4    14    1
    10     5     6   ar
    11     5     7   ar
    12     6     8   ar
    13     7     9   ar
    14     7    15    1
    15     8    10   ar
    16     8    16    1
    17     9    10   ar
    18     9    17    1
    19    10    18    1
