@<TRIPOS>MOLECULE
10329
 17 18 0 0 0
SMALL
GASTEIGER

@<TRIPOS>ATOM
      1 O          -1.5300   -1.1970   -0.0848 O.3     1  UNL1       -0.4914
      2 C          -1.6393    1.2268   -0.1190 C.3     1  UNL1        0.0101
      3 C          -0.2528    0.7216   -0.0210 C.ar    1  UNL1       -0.0025
      4 C          -2.3897   -0.0675    0.1989 C.3     1  UNL1        0.0937
      5 C          -0.2666   -0.6651   -0.0340 C.ar    1  UNL1        0.1238
      6 C           0.9405    1.4191    0.0110 C.ar    1  UNL1       -0.0550
      7 C           0.8975   -1.4087   -0.0177 C.ar    1  UNL1       -0.0197
      8 C           2.1310    0.6878    0.0411 C.ar    1  UNL1       -0.0613
      9 C           2.1094   -0.7170    0.0256 C.ar    1  UNL1       -0.0583
     10 H          -1.8745    2.0199    0.5951 H       1  UNL1        0.0347
     11 H          -1.8490    1.5642   -1.1391 H       1  UNL1        0.0347
     12 H          -2.6629   -0.1148    1.2609 H       1  UNL1        0.0700
     13 H          -3.3086   -0.1552   -0.3899 H       1  UNL1        0.0700
     14 H           0.9588    2.5035    0.0060 H       1  UNL1        0.0621
     15 H           0.8773   -2.4925   -0.0344 H       1  UNL1        0.0654
     16 H           3.0839    1.2095    0.0690 H       1  UNL1        0.0618
     17 H           3.0456   -1.2685    0.0437 H       1  UNL1        0.0619
@<TRIPOS>BOND
     1     1     4    1
     2     1     5    1
     3     2     3    1
     4     2     4    1
     5     2    10    1
     6     2    11    1
     7     3     5   ar
     8     3     6   ar
     9     4    12    1
    10     4    13    1
    11     5     7   ar
    12     6     8   ar
    13     6    14    1
    14     7     9   ar
    15     7    15    1
    16     8     9   ar
    17     8    16    1
    18     9    17    1
