@<TRIPOS>MOLECULE
96266
 20 21 0 0 0
SMALL
GASTEIGER

@<TRIPOS>ATOM
      1 O          -2.4128   -0.6290   -0.3335 O.3     1  UNL1       -0.3749
      2 C          -1.2669    1.4733   -0.0989 C.3     1  UNL1       -0.0038
      3 C           0.0297    0.7116   -0.0250 C.ar    1  UNL1       -0.0398
      4 C           0.0137   -0.6934    0.0093 C.ar    1  UNL1       -0.0187
      5 C          -2.4337    0.6127    0.3706 C.3     1  UNL1        0.0521
      6 C          -1.2966   -1.4363    0.0570 C.3     1  UNL1        0.0729
      7 C           1.2534    1.3912   -0.0520 C.ar    1  UNL1       -0.0582
      8 C           1.2230   -1.3980    0.0531 C.ar    1  UNL1       -0.0561
      9 C           2.4528    0.6802   -0.0178 C.ar    1  UNL1       -0.0615
     10 C           2.4375   -0.7123    0.0371 C.ar    1  UNL1       -0.0614
     11 H          -1.2164    2.3839    0.5080 H       1  UNL1        0.0335
     12 H          -1.4232    1.7616   -1.1455 H       1  UNL1        0.0335
     13 H          -2.3989    0.4276    1.4514 H       1  UNL1        0.0563
     14 H          -3.3812    1.1143    0.1490 H       1  UNL1        0.0563
     15 H          -1.2667   -2.2904   -0.6277 H       1  UNL1        0.0610
     16 H          -1.4731   -1.8143    1.0708 H       1  UNL1        0.0610
     17 H           1.2781    2.4768   -0.0996 H       1  UNL1        0.0620
     18 H           1.2244   -2.4840    0.0991 H       1  UNL1        0.0621
     19 H           3.3994    1.2123   -0.0346 H       1  UNL1        0.0618
     20 H           3.3724   -1.2644    0.0671 H       1  UNL1        0.0618
@<TRIPOS>BOND
     1     1     5    1
     2     1     6    1
     3     2     3    1
     4     2     5    1
     5     2    11    1
     6     2    12    1
     7     3     4   ar
     8     3     7   ar
     9     4     6    1
    10     4     8   ar
    11     5    13    1
    12     5    14    1
    13     6    15    1
    14     6    16    1
    15     7     9   ar
    16     7    17    1
    17     8    10   ar
    18     8    18    1
    19     9    10   ar
    20     9    19    1
    21    10    20    1
