@<TRIPOS>MOLECULE
10423
 10 10 0 0 0
SMALL
GASTEIGER

@<TRIPOS>ATOM
      1 O           1.0398   -0.0011   -0.0252 O.3     1  UNL1       -0.3796
      2 C          -1.0946    0.0011   -0.0228 C.3     1  UNL1       -0.0059
      3 C           0.0285    1.0310    0.0240 C.3     1  UNL1        0.0497
      4 C           0.0263   -1.0310    0.0240 C.3     1  UNL1        0.0497
      5 H          -1.7604    0.0019    0.8434 H       1  UNL1        0.0310
      6 H          -1.6778    0.0017   -0.9471 H       1  UNL1        0.0310
      7 H           0.0892    1.6971   -0.8410 H       1  UNL1        0.0560
      8 H           0.0950    1.6108    0.9490 H       1  UNL1        0.0560
      9 H           0.0915   -1.6110    0.9490 H       1  UNL1        0.0560
     10 H           0.0856   -1.6973   -0.8410 H       1  UNL1        0.0560
@<TRIPOS>BOND
     1     1     3    1
     2     1     4    1
     3     2     3    1
     4     2     4    1
     5     2     5    1
     6     2     6    1
     7     3     7    1
     8     3     8    1
     9     4     9    1
    10     4    10    1
