@<TRIPOS>MOLECULE
6354
 7 7 0 0 0
SMALL
GASTEIGER

@<TRIPOS>ATOM
      1 O          -0.0007    0.8141    0.0000 O.3     1  UNL1       -0.3752
      2 C           0.7509   -0.4065    0.0000 C.3     1  UNL1        0.0711
      3 C          -0.7502   -0.4076    0.0000 C.3     1  UNL1        0.0711
      4 H           1.2625   -0.6786    0.9136 H       1  UNL1        0.0583
      5 H           1.2625   -0.6787   -0.9136 H       1  UNL1        0.0583
      6 H          -1.2614   -0.6806   -0.9136 H       1  UNL1        0.0583
      7 H          -1.2614   -0.6805    0.9136 H       1  UNL1        0.0583
@<TRIPOS>BOND
     1     1     2    1
     2     1     3    1
     3     2     3    1
     4     2     4    1
     5     2     5    1
     6     3     6    1
     7     3     7    1
