@<TRIPOS>MOLECULE
8028
 13 13 0 0 0
SMALL
GASTEIGER

@<TRIPOS>ATOM
      1 O           1.2328   -0.0005    0.0000 O.3     1  UNL1       -0.3798
      2 C          -1.0107   -0.7202   -0.2205 C.3     1  UNL1       -0.0274
      3 C          -1.0102    0.7210    0.2205 C.3     1  UNL1       -0.0274
      4 C           0.3936   -1.1560    0.1374 C.3     1  UNL1        0.0477
      5 C           0.3946    1.1557   -0.1375 C.3     1  UNL1        0.0477
      6 H          -1.7823   -1.3279    0.2593 H       1  UNL1        0.0288
      7 H          -1.1544   -0.7757   -1.3060 H       1  UNL1        0.0288
      8 H          -1.7812    1.3292   -0.2593 H       1  UNL1        0.0288
      9 H          -1.1537    0.7766    1.3061 H       1  UNL1        0.0288
     10 H           0.4518   -1.4889    1.1792 H       1  UNL1        0.0560
     11 H           0.7622   -1.9589   -0.5071 H       1  UNL1        0.0560
     12 H           0.4532    1.4885   -1.1793 H       1  UNL1        0.0560
     13 H           0.7639    1.9583    0.5070 H       1  UNL1        0.0560
@<TRIPOS>BOND
     1     1     4    1
     2     1     5    1
     3     2     3    1
     4     2     4    1
     5     2     6    1
     6     2     7    1
     7     3     5    1
     8     3     8    1
     9     3     9    1
    10     4    10    1
    11     4    11    1
    12     5    12    1
    13     5    13    1
