@<TRIPOS>MOLECULE
8894
 16 16 0 0 0
SMALL
GASTEIGER

@<TRIPOS>ATOM
      1 O          -1.3754   -0.0008   -0.2544 O.3     1  UNL1       -0.3798
      2 C           1.4623    0.0006    0.2102 C.3     1  UNL1       -0.0489
      3 C           0.7054   -1.2532   -0.2150 C.3     1  UNL1       -0.0294
      4 C           0.7043    1.2539   -0.2146 C.3     1  UNL1       -0.0294
      5 C          -0.7476   -1.1849    0.2371 C.3     1  UNL1        0.0477
      6 C          -0.7489    1.1843    0.2366 C.3     1  UNL1        0.0477
      7 H           1.5836    0.0005    1.3004 H       1  UNL1        0.0267
      8 H           2.4671    0.0012   -0.2262 H       1  UNL1        0.0267
      9 H           0.7376   -1.3265   -1.3090 H       1  UNL1        0.0287
     10 H           1.1900   -2.1470    0.1915 H       1  UNL1        0.0287
     11 H           1.1879    2.1480    0.1925 H       1  UNL1        0.0287
     12 H           0.7369    1.3278   -1.3086 H       1  UNL1        0.0287
     13 H          -1.3007   -2.0437   -0.1563 H       1  UNL1        0.0560
     14 H          -0.8267   -1.2126    1.3303 H       1  UNL1        0.0560
     15 H          -0.8287    1.2125    1.3298 H       1  UNL1        0.0560
     16 H          -1.3027    2.0423   -0.1575 H       1  UNL1        0.0560
@<TRIPOS>BOND
     1     1     5    1
     2     1     6    1
     3     2     3    1
     4     2     4    1
     5     2     7    1
     6     2     8    1
     7     3     5    1
     8     3     9    1
     9     3    10    1
    10     4     6    1
    11     4    11    1
    12     4    12    1
    13     5    13    1
    14     5    14    1
    15     6    15    1
    16     6    16    1
