@<TRIPOS>MOLECULE
17985514
 19 20 0 0 0
SMALL
GASTEIGER

@<TRIPOS>ATOM
      1 O          -1.5837    1.1674   -0.0795 O.2     1  UNL1       -0.4959
      2 C          -0.2567   -0.7817    0.4125 C.3     1  UNL1        0.0231
      3 C          -1.5559   -1.2081   -0.2284 C.3     1  UNL1       -0.0087
      4 C           1.0076   -1.4753   -0.1119 C.3     1  UNL1       -0.0247
      5 C          -0.3026    0.6844    0.1106 C.2     1  UNL1        0.1011
      6 C          -2.4324    0.0089    0.0262 C.3     1  UNL1        0.0898
      7 C           2.2151   -0.5714   -0.0396 C.2     1  UNL1       -0.0832
      8 C           0.8072    1.4085   -0.0862 C.2     1  UNL1       -0.0242
      9 C           2.1014    0.7673   -0.0038 C.2     1  UNL1       -0.0625
     10 H          -0.3199   -0.9103    1.5020 H       1  UNL1        0.0383
     11 H          -1.9740   -2.1238    0.1991 H       1  UNL1        0.0305
     12 H          -1.4347   -1.3587   -1.3086 H       1  UNL1        0.0305
     13 H           0.8843   -1.8061   -1.1502 H       1  UNL1        0.0314
     14 H           1.1915   -2.3758    0.4860 H       1  UNL1        0.0314
     15 H          -3.2462    0.0867   -0.7009 H       1  UNL1        0.0696
     16 H          -2.8625   -0.0104    1.0345 H       1  UNL1        0.0696
     17 H           3.1989   -1.0300   -0.0285 H       1  UNL1        0.0572
     18 H           0.7657    2.4604   -0.3434 H       1  UNL1        0.0651
     19 H           2.9814    1.3997    0.0338 H       1  UNL1        0.0616
@<TRIPOS>BOND
     1     1     5    1
     2     1     6    1
     3     2     3    1
     4     2     4    1
     5     2     5    1
     6     2    10    1
     7     3     6    1
     8     3    11    1
     9     3    12    1
    10     4     7    1
    11     4    13    1
    12     4    14    1
    13     5     8    2
    14     6    15    1
    15     6    16    1
    16     7     9    2
    17     7    17    1
    18     8     9    1
    19     8    18    1
    20     9    19    1
