@<TRIPOS>MOLECULE
9223
 15 16 0 0 0
SMALL
GASTEIGER

@<TRIPOS>ATOM
      1 O          -1.5396   -1.1283    0.0002 O.2     1  UNL1       -0.4629
      2 C          -0.2759    0.7444   -0.0001 C.ar    1  UNL1        0.0201
      3 C          -0.2648   -0.6467    0.0000 C.ar    1  UNL1        0.1348
      4 C           0.9536    1.4259   -0.0001 C.ar    1  UNL1       -0.0510
      5 C          -1.6454    1.1193   -0.0002 C.ar    1  UNL1       -0.0161
      6 C           0.8954   -1.4189   -0.0002 C.ar    1  UNL1       -0.0188
      7 C           2.1380    0.6762    0.0003 C.ar    1  UNL1       -0.0610
      8 C           2.1067   -0.7206   -0.0001 C.ar    1  UNL1       -0.0582
      9 C          -2.3680   -0.0514    0.0001 C.ar    1  UNL1        0.0931
     10 H           0.9937    2.5110    0.0000 H       1  UNL1        0.0625
     11 H          -2.0548    2.1195   -0.0003 H       1  UNL1        0.0655
     12 H           0.8632   -2.5019   -0.0002 H       1  UNL1        0.0654
     13 H           3.0954    1.1910    0.0005 H       1  UNL1        0.0618
     14 H           3.0416   -1.2757    0.0000 H       1  UNL1        0.0619
     15 H          -3.4246   -0.2759    0.0003 H       1  UNL1        0.1029
@<TRIPOS>BOND
     1     1     3   ar
     2     1     9   ar
     3     2     3   ar
     4     2     4   ar
     5     2     5   ar
     6     3     6   ar
     7     4     7   ar
     8     4    10    1
     9     5     9   ar
    10     5    11    1
    11     6     8   ar
    12     6    12    1
    13     7     8   ar
    14     7    13    1
    15     8    14    1
    16     9    15    1
