@<TRIPOS>MOLECULE
5798
 15 16 0 0 0
SMALL
GASTEIGER

@<TRIPOS>ATOM
      1 N           1.5466    1.1309   -0.0001 N.ar    1  UNL1       -0.3444
      2 N           1.6283   -1.0902    0.0001 N.ar    1  UNL1       -0.2359
      3 C           0.2393    0.7166   -0.0001 C.ar    1  UNL1        0.0660
      4 C           0.3170   -0.6734    0.0000 C.ar    1  UNL1        0.0888
      5 C          -0.9675    1.4168    0.0000 C.ar    1  UNL1       -0.0363
      6 C          -0.8699   -1.4256   -0.0001 C.ar    1  UNL1       -0.0342
      7 C          -2.1388    0.6524    0.0002 C.ar    1  UNL1       -0.0597
      8 C           2.3379    0.0161    0.0001 C.ar    1  UNL1        0.0944
      9 C          -2.0930   -0.7436    0.0000 C.ar    1  UNL1       -0.0596
     10 H           1.8680    2.0898   -0.0002 H       1  UNL1        0.1668
     11 H          -1.0004    2.5004    0.0000 H       1  UNL1        0.0639
     12 H          -0.8451   -2.5106   -0.0001 H       1  UNL1        0.0639
     13 H           3.4166    0.0792    0.0002 H       1  UNL1        0.1027
     14 H          -3.1028    1.1552    0.0002 H       1  UNL1        0.0618
     15 H          -3.0205   -1.3105    0.0000 H       1  UNL1        0.0618
@<TRIPOS>BOND
     1     1     3   ar
     2     1     8   ar
     3     1    10    1
     4     2     4   ar
     5     2     8   ar
     6     3     4   ar
     7     3     5   ar
     8     4     6   ar
     9     5     7   ar
    10     5    11    1
    11     6     9   ar
    12     6    12    1
    13     7     9   ar
    14     7    14    1
    15     8    13    1
    16     9    15    1
