@<TRIPOS>MOLECULE
6854
 22 24 0 0 0
SMALL
GASTEIGER

@<TRIPOS>ATOM
      1 N           0.0000    1.6351    0.0004 N.ar    1  UNL1       -0.3541
      2 C          -0.7155   -0.4768    0.0003 C.ar    1  UNL1        0.0074
      3 C           0.7156   -0.4768    0.0004 C.ar    1  UNL1        0.0074
      4 C          -1.1320    0.8546    0.0001 C.ar    1  UNL1        0.0475
      5 C           1.1320    0.8547    0.0003 C.ar    1  UNL1        0.0475
      6 C          -1.6969   -1.4903    0.0002 C.ar    1  UNL1       -0.0520
      7 C           1.6968   -1.4904    0.0003 C.ar    1  UNL1       -0.0520
      8 C          -2.4814    1.2258   -0.0002 C.ar    1  UNL1       -0.0378
      9 C           2.4814    1.2258    0.0000 C.ar    1  UNL1       -0.0378
     10 C          -3.0504   -1.1348   -0.0003 C.ar    1  UNL1       -0.0611
     11 C           3.0504   -1.1348   -0.0003 C.ar    1  UNL1       -0.0611
     12 C          -3.4347    0.2039   -0.0005 C.ar    1  UNL1       -0.0598
     13 C           3.4346    0.2040   -0.0007 C.ar    1  UNL1       -0.0598
     14 H          -0.0001    2.6458    0.0004 H       1  UNL1        0.1659
     15 H          -1.4130   -2.5389    0.0003 H       1  UNL1        0.0624
     16 H           1.4130   -2.5390    0.0004 H       1  UNL1        0.0624
     17 H          -2.7814    2.2684   -0.0003 H       1  UNL1        0.0638
     18 H           2.7814    2.2683   -0.0002 H       1  UNL1        0.0638
     19 H          -3.8088   -1.9132   -0.0004 H       1  UNL1        0.0618
     20 H           3.8088   -1.9132   -0.0006 H       1  UNL1        0.0618
     21 H          -4.4913    0.4591   -0.0008 H       1  UNL1        0.0618
     22 H           4.4913    0.4591   -0.0012 H       1  UNL1        0.0618
@<TRIPOS>BOND
     1     1     4   ar
     2     1     5   ar
     3     1    14    1
     4     2     3   ar
     5     2     4   ar
     6     2     6   ar
     7     3     5   ar
     8     3     7   ar
     9     4     8   ar
    10     5     9   ar
    11     6    10   ar
    12     6    15    1
    13     7    11   ar
    14     7    16    1
    15     8    12   ar
    16     8    17    1
    17     9    13   ar
    18     9    18    1
    19    10    12   ar
    20    10    19    1
    21    11    13   ar
    22    11    20    1
    23    12    21    1
    24    13    22    1
