@<TRIPOS>MOLECULE
136319
 20 21 0 0 0
SMALL
GASTEIGER

@<TRIPOS>ATOM
      1 O           1.1508    1.4343    0.0483 O.3     1  UNL1       -0.4917
      2 C           1.2924   -1.4944   -0.0791 C.3     1  UNL1       -0.0212
      3 C           2.4556   -0.6140    0.3561 C.3     1  UNL1       -0.0145
      4 C           0.0049   -0.7219   -0.0333 C.ar    1  UNL1       -0.0056
      5 C           2.3423    0.7374   -0.3310 C.3     1  UNL1        0.0899
      6 C           0.0061    0.6788    0.0154 C.ar    1  UNL1        0.1237
      7 C          -1.2193   -1.4025   -0.0672 C.ar    1  UNL1       -0.0551
      8 C          -1.1992    1.3832    0.0696 C.ar    1  UNL1       -0.0197
      9 C          -2.4219   -0.6962   -0.0256 C.ar    1  UNL1       -0.0613
     10 C          -2.4117    0.6952    0.0468 C.ar    1  UNL1       -0.0583
     11 H           1.2376   -2.3729    0.5740 H       1  UNL1        0.0315
     12 H           1.4539   -1.8443   -1.1059 H       1  UNL1        0.0315
     13 H           2.4163   -0.4724    1.4437 H       1  UNL1        0.0301
     14 H           3.4082   -1.0971    0.1150 H       1  UNL1        0.0301
     15 H           3.1902    1.3677   -0.0429 H       1  UNL1        0.0696
     16 H           2.3662    0.6384   -1.4234 H       1  UNL1        0.0696
     17 H          -1.2419   -2.4880   -0.1208 H       1  UNL1        0.0621
     18 H          -1.2009    2.4688    0.1233 H       1  UNL1        0.0654
     19 H          -3.3665   -1.2318   -0.0473 H       1  UNL1        0.0618
     20 H          -3.3481    1.2442    0.0833 H       1  UNL1        0.0619
@<TRIPOS>BOND
     1     1     5    1
     2     1     6    1
     3     2     3    1
     4     2     4    1
     5     2    11    1
     6     2    12    1
     7     3     5    1
     8     3    13    1
     9     3    14    1
    10     4     6   ar
    11     4     7   ar
    12     5    15    1
    13     5    16    1
    14     6     8   ar
    15     7     9   ar
    16     7    17    1
    17     8    10   ar
    18     8    18    1
    19     9    10   ar
    20     9    19    1
    21    10    20    1
