@<TRIPOS>MOLECULE
57023773
 16 17 0 0 0
SMALL
GASTEIGER

@<TRIPOS>ATOM
      1 O          -1.2338   -1.3932    0.0001 O.3     1  UNL1       -0.4549
      2 C           0.0140    0.7480    0.0000 C.ar    1  UNL1        0.0249
      3 C          -0.0255   -0.6770    0.0000 C.ar    1  UNL1        0.1362
      4 C           1.2418    1.4054    0.0000 C.ar    1  UNL1       -0.0505
      5 C           1.1536   -1.4168    0.0000 C.ar    1  UNL1       -0.0187
      6 C           2.4203    0.6549    0.0000 C.ar    1  UNL1       -0.0610
      7 C           2.3765   -0.7445    0.0000 C.ar    1  UNL1       -0.0582
      8 C          -1.2733    1.4592    0.0000 C.2     1  UNL1       -0.0059
      9 C          -2.4151   -0.6582   -0.0001 C.2     1  UNL1        0.1346
     10 C          -2.2584    0.6221    0.0001 C.1     1  UNL1       -0.0818
     11 H           1.2968    2.4904   -0.0001 H       1  UNL1        0.0625
     12 H           1.1308   -2.5023    0.0000 H       1  UNL1        0.0654
     13 H           3.3814    1.1621    0.0000 H       1  UNL1        0.0618
     14 H           3.3036   -1.3114    0.0000 H       1  UNL1        0.0619
     15 H          -1.3618    2.5352    0.0001 H       1  UNL1        0.0714
     16 H          -3.3232   -1.2348    0.0003 H       1  UNL1        0.1123
@<TRIPOS>BOND
     1     1     3    1
     2     1     9    1
     3     2     3   ar
     4     2     4   ar
     5     2     8    1
     6     3     5   ar
     7     4     6   ar
     8     4    11    1
     9     5     7   ar
    10     5    12    1
    11     6     7   ar
    12     6    13    1
    13     7    14    1
    14     8    10    2
    15     8    15    1
    16     9    10    2
    17     9    16    1
