@<TRIPOS>MOLECULE
798
 16 17 0 0 0
SMALL
GASTEIGER

@<TRIPOS>ATOM
      1 N           1.5610    1.1123   -0.0001 N.ar    1  UNL1       -0.3606
      2 C           0.2536    0.6808    0.0000 C.ar    1  UNL1        0.0465
      3 C           0.2815   -0.7155    0.0000 C.ar    1  UNL1       -0.0004
      4 C           1.6500   -1.1056    0.0002 C.ar    1  UNL1       -0.0367
      5 C          -0.9394    1.4123   -0.0001 C.ar    1  UNL1       -0.0378
      6 C          -0.9396   -1.4182   -0.0003 C.ar    1  UNL1       -0.0526
      7 C           2.4121    0.0399    0.0000 C.ar    1  UNL1        0.0027
      8 C          -2.1383    0.6938    0.0001 C.ar    1  UNL1       -0.0598
      9 C          -2.1409   -0.6998    0.0001 C.ar    1  UNL1       -0.0611
     10 H           1.8497    2.0807   -0.0002 H       1  UNL1        0.1653
     11 H           2.0368   -2.1155    0.0002 H       1  UNL1        0.0638
     12 H          -0.9385    2.4972   -0.0002 H       1  UNL1        0.0638
     13 H          -0.9561   -2.5043   -0.0003 H       1  UNL1        0.0624
     14 H           3.4829    0.1869    0.0000 H       1  UNL1        0.0807
     15 H          -3.0829    1.2317    0.0003 H       1  UNL1        0.0618
     16 H          -3.0859   -1.2365    0.0002 H       1  UNL1        0.0618
@<TRIPOS>BOND
     1     1     2   ar
     2     1     7   ar
     3     1    10    1
     4     2     3   ar
     5     2     5   ar
     6     3     4   ar
     7     3     6   ar
     8     4     7   ar
     9     4    11    1
    10     5     8   ar
    11     5    12    1
    12     6     9   ar
    13     6    13    1
    14     7    14    1
    15     8     9   ar
    16     8    15    1
    17     9    16    1
