@<TRIPOS>MOLECULE
136069
 16 17 0 0 0
SMALL
GASTEIGER

@<TRIPOS>ATOM
      1 N           1.1547   -1.3785    0.0000 N.ar    1  UNL1       -0.2357
      2 N          -1.1548   -1.3785    0.0000 N.ar    1  UNL1       -0.2357
      3 C           0.0000    0.7060    0.0000 C.ar    1  UNL1        0.0192
      4 C          -0.0001   -0.6998    0.0000 C.ar    1  UNL1        0.1597
      5 C           1.2242    1.3896    0.0000 C.ar    1  UNL1       -0.0496
      6 C          -1.2241    1.3896    0.0000 C.ar    1  UNL1       -0.0496
      7 C           2.4129    0.6802    0.0000 C.ar    1  UNL1       -0.0429
      8 C          -2.4128    0.6803    0.0000 C.ar    1  UNL1       -0.0429
      9 C           2.3230   -0.6945    0.0000 C.ar    1  UNL1        0.0300
     10 C          -2.3230   -0.6944    0.0000 C.ar    1  UNL1        0.0300
     11 H           1.2544    2.4766    0.0000 H       1  UNL1        0.0625
     12 H          -1.2543    2.4767    0.0000 H       1  UNL1        0.0625
     13 H           3.3713    1.1848    0.0000 H       1  UNL1        0.0633
     14 H          -3.3713    1.1849    0.0000 H       1  UNL1        0.0633
     15 H           3.2159   -1.3109    0.0000 H       1  UNL1        0.0830
     16 H          -3.2160   -1.3108    0.0000 H       1  UNL1        0.0830
@<TRIPOS>BOND
     1     1     4   ar
     2     1     9   ar
     3     2     4   ar
     4     2    10   ar
     5     3     4   ar
     6     3     5   ar
     7     3     6   ar
     8     5     7   ar
     9     5    11    1
    10     6     8   ar
    11     6    12    1
    12     7     9   ar
    13     7    13    1
    14     8    10   ar
    15     8    14    1
    16     9    15    1
    17    10    16    1
