@<TRIPOS>MOLECULE
7108
 23 25 0 0 0
SMALL
GASTEIGER

@<TRIPOS>ATOM
      1 S           0.0000    1.8702   -0.0016 S.3     1  UNL1       -0.0857
      2 N           0.0001   -1.2549   -0.0011 N.pl3   1  UNL1       -0.3128
      3 C           1.2589   -0.6341   -0.0008 C.ar    1  UNL1        0.0453
      4 C          -1.2588   -0.6340   -0.0007 C.ar    1  UNL1        0.0453
      5 C           1.3996    0.7626   -0.0007 C.ar    1  UNL1        0.0339
      6 C          -1.3996    0.7626   -0.0005 C.ar    1  UNL1        0.0339
      7 C           2.4146   -1.4336    0.0000 C.ar    1  UNL1       -0.0395
      8 C          -2.4146   -1.4337   -0.0001 C.ar    1  UNL1       -0.0395
      9 C           2.6823    1.3323    0.0002 C.ar    1  UNL1       -0.0462
     10 C          -2.6824    1.3323    0.0007 C.ar    1  UNL1       -0.0462
     11 C           3.6853   -0.8593    0.0010 C.ar    1  UNL1       -0.0599
     12 C          -3.6853   -0.8593    0.0006 C.ar    1  UNL1       -0.0599
     13 C           3.8189    0.5243    0.0014 C.ar    1  UNL1       -0.0606
     14 C          -3.8190    0.5243    0.0014 C.ar    1  UNL1       -0.0606
     15 H           0.0000   -2.2686   -0.0013 H       1  UNL1        0.1522
     16 H           2.3297   -2.5183   -0.0001 H       1  UNL1        0.0636
     17 H          -2.3296   -2.5184   -0.0004 H       1  UNL1        0.0636
     18 H           2.8130    2.4125    0.0003 H       1  UNL1        0.0629
     19 H          -2.8131    2.4125    0.0010 H       1  UNL1        0.0629
     20 H           4.5679   -1.4920    0.0017 H       1  UNL1        0.0618
     21 H          -4.5679   -1.4921    0.0010 H       1  UNL1        0.0618
     22 H           4.8065    0.9760    0.0023 H       1  UNL1        0.0618
     23 H          -4.8066    0.9759    0.0022 H       1  UNL1        0.0618
@<TRIPOS>BOND
     1     1     5    1
     2     1     6    1
     3     2     3    1
     4     2     4    1
     5     2    15    1
     6     3     5   ar
     7     3     7   ar
     8     4     6   ar
     9     4     8   ar
    10     5     9   ar
    11     6    10   ar
    12     7    11   ar
    13     7    16    1
    14     8    12   ar
    15     8    17    1
    16     9    13   ar
    17     9    18    1
    18    10    14   ar
    19    10    19    1
    20    11    13   ar
    21    11    20    1
    22    12    14   ar
    23    12    21    1
    24    13    22    1
    25    14    23    1
