@<TRIPOS>MOLECULE
67278
 23 25 0 0 0
SMALL
GASTEIGER

@<TRIPOS>ATOM
      1 O           0.0000   -1.3833    0.0012 O.3     1  UNL1       -0.4523
      2 N           0.0000    1.4264    0.0008 N.pl3   1  UNL1       -0.3088
      3 C           1.2132    0.7345    0.0011 C.ar    1  UNL1        0.0743
      4 C          -1.2131    0.7345    0.0010 C.ar    1  UNL1        0.0743
      5 C           1.1849   -0.6698    0.0007 C.ar    1  UNL1        0.1495
      6 C          -1.1850   -0.6698    0.0006 C.ar    1  UNL1        0.1495
      7 C           2.4435    1.3948   -0.0004 C.ar    1  UNL1       -0.0369
      8 C          -2.4436    1.3948   -0.0001 C.ar    1  UNL1       -0.0369
      9 C           2.3704   -1.4047   -0.0002 C.ar    1  UNL1       -0.0175
     10 C          -2.3703   -1.4047   -0.0001 C.ar    1  UNL1       -0.0175
     11 C           3.6306    0.6595   -0.0012 C.ar    1  UNL1       -0.0598
     12 C          -3.6306    0.6595   -0.0012 C.ar    1  UNL1       -0.0598
     13 C           3.5938   -0.7360   -0.0009 C.ar    1  UNL1       -0.0582
     14 C          -3.5938   -0.7359   -0.0011 C.ar    1  UNL1       -0.0582
     15 H           0.0000    2.4366    0.0026 H       1  UNL1        0.1524
     16 H           2.4880    2.4807   -0.0008 H       1  UNL1        0.0637
     17 H          -2.4880    2.4808   -0.0003 H       1  UNL1        0.0637
     18 H           2.3488   -2.4907   -0.0003 H       1  UNL1        0.0655
     19 H          -2.3489   -2.4907   -0.0002 H       1  UNL1        0.0655
     20 H           4.5865    1.1755   -0.0021 H       1  UNL1        0.0618
     21 H          -4.5866    1.1755   -0.0020 H       1  UNL1        0.0618
     22 H           4.5210   -1.3020   -0.0016 H       1  UNL1        0.0619
     23 H          -4.5209   -1.3019   -0.0019 H       1  UNL1        0.0619
@<TRIPOS>BOND
     1     1     5    1
     2     1     6    1
     3     2     3    1
     4     2     4    1
     5     2    15    1
     6     3     5   ar
     7     3     7   ar
     8     4     6   ar
     9     4     8   ar
    10     5     9   ar
    11     6    10   ar
    12     7    11   ar
    13     7    16    1
    14     8    12   ar
    15     8    17    1
    16     9    13   ar
    17     9    18    1
    18    10    14   ar
    19    10    19    1
    20    11    13   ar
    21    11    20    1
    22    12    14   ar
    23    12    21    1
    24    13    22    1
    25    14    23    1
