@<TRIPOS>MOLECULE
1044
 13 14 0 0 0
SMALL
GASTEIGER

@<TRIPOS>ATOM
      1 N           1.5118   -1.1529    0.0000 N.ar    1  UNL1       -0.3419
      2 N           1.5927    1.0746    0.0000 N.ar    1  UNL1       -0.2165
      3 N          -0.8100    1.4453    0.0001 N.ar    1  UNL1       -0.2146
      4 N          -2.1255   -0.6093    0.0000 N.ar    1  UNL1       -0.2415
      5 C           0.2115   -0.7347   -0.0001 C.ar    1  UNL1        0.1034
      6 C           0.2880    0.6516   -0.0001 C.ar    1  UNL1        0.1806
      7 C          -1.0118   -1.3756    0.0000 C.ar    1  UNL1        0.0563
      8 C           2.3019   -0.0338    0.0000 C.ar    1  UNL1        0.0962
      9 C          -1.9585    0.7348    0.0000 C.ar    1  UNL1        0.1184
     10 H           1.8350   -2.1113    0.0001 H       1  UNL1        0.1669
     11 H          -1.1359   -2.4493    0.0001 H       1  UNL1        0.0852
     12 H           3.3807   -0.0973    0.0001 H       1  UNL1        0.1027
     13 H          -2.8723    1.3193    0.0000 H       1  UNL1        0.1047
@<TRIPOS>BOND
     1     1     5   ar
     2     1     8   ar
     3     1    10    1
     4     2     6   ar
     5     2     8   ar
     6     3     6   ar
     7     3     9   ar
     8     4     7   ar
     9     4     9   ar
    10     5     6   ar
    11     5     7   ar
    12     7    11    1
    13     8    12    1
    14     9    13    1
