@<TRIPOS>MOLECULE
7045
 16 17 0 0 0
SMALL
GASTEIGER

@<TRIPOS>ATOM
      1 N           1.1940    1.3892   -0.0001 N.ar    1  UNL1       -0.2519
      2 N           1.1940   -1.3892    0.0001 N.ar    1  UNL1       -0.2519
      3 C           0.0375    0.7035    0.0001 C.ar    1  UNL1        0.0892
      4 C           0.0375   -0.7034    0.0000 C.ar    1  UNL1        0.0892
      5 C          -1.1796    1.3809    0.0000 C.ar    1  UNL1       -0.0342
      6 C          -1.1795   -1.3810   -0.0001 C.ar    1  UNL1       -0.0342
      7 C          -2.3920    0.6934    0.0001 C.ar    1  UNL1       -0.0596
      8 C          -2.3920   -0.6935   -0.0001 C.ar    1  UNL1       -0.0596
      9 C           2.3400    0.6847    0.0000 C.ar    1  UNL1        0.0464
     10 C           2.3400   -0.6847    0.0000 C.ar    1  UNL1        0.0464
     11 H          -1.1944    2.4691    0.0000 H       1  UNL1        0.0639
     12 H          -1.1942   -2.4691   -0.0001 H       1  UNL1        0.0639
     13 H          -3.3295    1.2410    0.0001 H       1  UNL1        0.0618
     14 H          -3.3294   -1.2411   -0.0002 H       1  UNL1        0.0618
     15 H           3.2563    1.2613   -0.0002 H       1  UNL1        0.0845
     16 H           3.2562   -1.2614    0.0000 H       1  UNL1        0.0845
@<TRIPOS>BOND
     1     1     3   ar
     2     1     9   ar
     3     2     4   ar
     4     2    10   ar
     5     3     4   ar
     6     3     5   ar
     7     4     6   ar
     8     5     7   ar
     9     5    11    1
    10     6     8   ar
    11     6    12    1
    12     7     8   ar
    13     7    13    1
    14     8    14    1
    15     9    10   ar
    16     9    15    1
    17    10    16    1
