@<TRIPOS>MOLECULE
7107
 24 26 0 0 0
SMALL
GASTEIGER

@<TRIPOS>ATOM
      1 O          -0.0001   -1.3501   -0.0017 O.3     1  UNL1       -0.4555
      2 C           0.0000    1.5781   -0.0005 C.3     1  UNL1        0.0045
      3 C          -1.2495    0.7480   -0.0014 C.ar    1  UNL1       -0.0007
      4 C           1.2496    0.7480   -0.0008 C.ar    1  UNL1       -0.0007
      5 C          -1.1823   -0.6482   -0.0011 C.ar    1  UNL1        0.1319
      6 C           1.1822   -0.6482   -0.0011 C.ar    1  UNL1        0.1319
      7 C          -2.5045    1.3716   -0.0005 C.ar    1  UNL1       -0.0548
      8 C           2.5045    1.3716    0.0003 C.ar    1  UNL1       -0.0548
      9 C          -2.3527   -1.4119    0.0003 C.ar    1  UNL1       -0.0190
     10 C           2.3528   -1.4119   -0.0003 C.ar    1  UNL1       -0.0190
     11 C          -3.6727    0.6088    0.0014 C.ar    1  UNL1       -0.0613
     12 C           3.6727    0.6088    0.0017 C.ar    1  UNL1       -0.0613
     13 C          -3.5967   -0.7824    0.0021 C.ar    1  UNL1       -0.0583
     14 C           3.5967   -0.7824    0.0014 C.ar    1  UNL1       -0.0583
     15 H           0.0002    2.2163   -0.8926 H       1  UNL1        0.0364
     16 H          -0.0002    2.2150    0.8925 H       1  UNL1        0.0364
     17 H          -2.5771    2.4563   -0.0005 H       1  UNL1        0.0622
     18 H           2.5771    2.4563    0.0007 H       1  UNL1        0.0622
     19 H          -2.3020   -2.4975    0.0007 H       1  UNL1        0.0654
     20 H           2.3021   -2.4975   -0.0004 H       1  UNL1        0.0654
     21 H          -4.6414    1.0999    0.0026 H       1  UNL1        0.0618
     22 H           4.6414    1.0999    0.0029 H       1  UNL1        0.0618
     23 H          -4.5059   -1.3763    0.0035 H       1  UNL1        0.0619
     24 H           4.5060   -1.3762    0.0024 H       1  UNL1        0.0619
@<TRIPOS>BOND
     1     1     5    1
     2     1     6    1
     3     2     3    1
     4     2     4    1
     5     2    15    1
     6     2    16    1
     7     3     5   ar
     8     3     7   ar
     9     4     6   ar
    10     4     8   ar
    11     5     9   ar
    12     6    10   ar
    13     7    11   ar
    14     7    17    1
    15     8    12   ar
    16     8    18    1
    17     9    13   ar
    18     9    19    1
    19    10    14   ar
    20    10    20    1
    21    11    13   ar
    22    11    21    1
    23    12    14   ar
    24    12    22    1
    25    13    23    1
    26    14    24    1
