@<TRIPOS>MOLECULE
cyclopentyl
14 14
SMALL
NO_CHARGES

@<TRIPOS>ATOM
      1 C1        -0.3390    1.2245    0.1188 C.3    1 FRAG1       0.0000
      2 C2         1.0330    0.6943   -0.2683 C.3    1 FRAG1       0.0000
      3 C3         1.0106   -0.7349    0.2447 C.3    1 FRAG1       0.0000
      4 C4        -0.3900   -1.2100   -0.1104 C.3    1 FRAG1       0.0000
      5 C5        -1.2801    0.0254    0.0148 C.3    1 FRAG1       0.0000
      6 H1        -0.6552    2.0552   -0.5192 H      1 FRAG1       0.0000
      7 H2         1.1488    0.7048   -1.3585 H      1 FRAG1       0.0000
      8 H3         1.8448    1.2829    0.1685 H      1 FRAG1       0.0000
      9 H4         1.1509   -0.7504    1.3320 H      1 FRAG1       0.0000
     10 H5         1.7880   -1.3550   -0.2103 H      1 FRAG1       0.0000
     11 H6        -0.4097   -1.5739   -1.1447 H      1 FRAG1       0.0000
     12 H7        -0.7241   -2.0279    0.5350 H      1 FRAG1       0.0000
     13 H8        -1.9375    0.1124   -0.8571 H      1 FRAG1       0.0000
     14 H9        -1.9201   -0.0359    0.9017 H      1 FRAG1       0.0000
@<TRIPOS>BOND
     1     1     2    1
     2     2     3    1
     3     3     4    1
     4     4     5    1
     5     5     1    1
     6     1     6    1
     7     2     7    1
     8     2     8    1
     9     3     9    1
    10     3    10    1
    11     4    11    1
    12     4    12    1
    13     5    13    1
    14     5    14    1
