@<TRIPOS>MOLECULE
cyclopropyl
8 8
SMALL
NO_CHARGES

@<TRIPOS>ATOM
      1 C1        -0.5946   -0.6314   -0.0073 C.3    1 FRAG1       0.0000
      2 C2        -0.2440    0.8266   -0.0973 C.3    1 FRAG1       0.0000
      3 C3         0.8386   -0.1952    0.1046 C.3    1 FRAG1       0.0000
      4 H1        -0.9030   -1.1376   -0.9148 H      1 FRAG1       0.0000
      5 H2        -0.5037    1.4649    0.7393 H      1 FRAG1       0.0000
      6 H3        -0.3149    1.3081   -1.0658 H      1 FRAG1       0.0000
      7 H4         1.5010   -0.4058   -0.7270 H      1 FRAG1       0.0000
      8 H5         1.3123   -0.2490    1.0781 H      1 FRAG1       0.0000
@<TRIPOS>BOND
     1     1     2    1
     2     2     3    1
     3     3     1    1
     4     1     4    1
     5     2     5    1
     6     2     6    1
     7     3     7    1
     8     3     8    1
