@<TRIPOS>MOLECULE
cyclobutyl
11 11
SMALL
NO_CHARGES

@<TRIPOS>ATOM
      1 C1         0.4301    0.9814   -0.1134 C.3    1 FRAG1       0.0000
      2 C2         0.9753   -0.4448    0.1091 C.3    1 FRAG1       0.0000
      3 C3        -0.4407   -0.9562   -0.2289 C.3    1 FRAG1       0.0000
      4 C4        -0.9646    0.4196    0.2332 C.3    1 FRAG1       0.0000
      5 H1         0.5204    1.3327   -1.1477 H      1 FRAG1       0.0000
      6 H2         1.7711   -0.7621   -0.5691 H      1 FRAG1       0.0000
      7 H3         1.2823   -0.6444    1.1421 H      1 FRAG1       0.0000
      8 H4        -0.7872   -1.8166    0.3486 H      1 FRAG1       0.0000
      9 H5        -0.5966   -1.1528   -1.2958 H      1 FRAG1       0.0000
     10 H6        -1.7994    0.8290   -0.3406 H      1 FRAG1       0.0000
     11 H7        -1.2061    0.4645    1.3014 H      1 FRAG1       0.0000
@<TRIPOS>BOND
     1     1     2    1
     2     2     3    1
     3     3     4    1
     4     4     1    1
     5     1     5    1
     6     2     6    1
     7     2     7    1
     8     3     8    1
     9     3     9    1
    10     4    10    1
    11     4    11    1
