@<TRIPOS>MOLECULE
cyclopentadienyl
10 10
SMALL
NO_CHARGES

@<TRIPOS>ATOM
      1 C1        -0.3942   -1.0650   -0.1143 C.3    1 FRAG1       0.0000
      2 C2         1.0236   -0.5734   -0.1296 C.2    1 FRAG1       0.0000
      3 C3         1.0438    0.7564    0.0392 C.2    1 FRAG1       0.0000
      4 C4        -0.3046    1.2408    0.1752 C.2    1 FRAG1       0.0000
      5 C5        -1.1579    0.2104    0.0906 C.2    1 FRAG1       0.0000
      6 H1        -0.5623   -1.7645    0.7096 H      1 FRAG1       0.0000
      7 H2         1.8895   -1.2047   -0.2579 H      1 FRAG1       0.0000
      8 H3         1.9213    1.3841    0.0710 H      1 FRAG1       0.0000
      9 H4        -0.5661    2.2777    0.3221 H      1 FRAG1       0.0000
     10 H5        -2.2331    0.2764    0.1582 H      1 FRAG1       0.0000
@<TRIPOS>BOND
     1     1     2    1
     2     2     3    2
     3     3     4    1
     4     4     5    2
     5     5     1    1
     6     1     6    1
     7     2     7    1
     8     3     8    1
     9     4     9    1
    10     5    10    1
