@<TRIPOS>MOLECULE
cyclohexyl
17 17
SMALL
NO_CHARGES

@<TRIPOS>ATOM
      1 C1         0.3305   -1.3764   -0.2940 C.3    1 FRAG1       0.0000
      2 C2         1.4567   -0.3456   -0.1920 C.3    1 FRAG1       0.0000
      3 C3         0.9657    1.0689    0.1232 C.3    1 FRAG1       0.0000
      4 C4        -0.4383    1.3146   -0.4125 C.3    1 FRAG1       0.0000
      5 C5        -1.4567    0.3456    0.1920 C.3    1 FRAG1       0.0000
      6 C6        -0.8579   -1.0070    0.5833 C.3    1 FRAG1       0.0000
      7 H1         0.7124   -2.3665   -0.0206 H      1 FRAG1       0.0000
      8 H2         2.1698   -0.6502    0.5837 H      1 FRAG1       0.0000
      9 H3         2.0161   -0.3430   -1.1354 H      1 FRAG1       0.0000
     10 H4         1.6656    1.8023   -0.2928 H      1 FRAG1       0.0000
     11 H5         0.9661    1.2195    1.2103 H      1 FRAG1       0.0000
     12 H6        -0.7477    2.3463   -0.2107 H      1 FRAG1       0.0000
     13 H7        -0.4310    1.1992   -1.5038 H      1 FRAG1       0.0000
     14 H8        -2.2700    0.1972   -0.5288 H      1 FRAG1       0.0000
     15 H9        -1.9159    0.7960    1.0804 H      1 FRAG1       0.0000
     16 H10       -0.5327   -0.9706    1.6308 H      1 FRAG1       0.0000
     17 H11       -1.6304   -1.7820    0.5241 H      1 FRAG1       0.0000
@<TRIPOS>BOND
     1     1     2    1
     2     2     3    1
     3     3     4    1
     4     4     5    1
     5     5     6    1
     6     6     1    1
     7     1     7    1
     8     2     8    1
     9     2     9    1
    10     3    10    1
    11     3    11    1
    12     4    12    1
    13     4    13    1
    14     5    14    1
    15     5    15    1
    16     6    16    1
    17     6    17    1
