@<TRIPOS>MOLECULE
7370
 17 17 0 0 0
SMALL
GASTEIGER

@<TRIPOS>ATOM
      1 S           1.7572   -0.0002   -0.1096 S.O2    1  UNL1        0.0559
      2 O           2.1983   -1.2605   -0.6910 O.2     1  UNL1       -0.1533
      3 O           2.2019    1.2590   -0.6903 O.2     1  UNL1       -0.1533
      4 N           2.1354    0.0004    1.5566 N.3     1  UNL1       -0.2035
      5 C           0.0121    0.0000   -0.0547 C.ar    1  UNL1        0.1050
      6 C          -0.6849    1.2081   -0.0334 C.ar    1  UNL1       -0.0354
      7 C          -0.6851   -1.2079   -0.0323 C.ar    1  UNL1       -0.0354
      8 C          -2.0791    1.2083    0.0104 C.ar    1  UNL1       -0.0599
      9 C          -2.0794   -1.2077    0.0115 C.ar    1  UNL1       -0.0599
     10 C          -2.7764    0.0004    0.0328 C.ar    1  UNL1       -0.0616
     11 H          -0.1623    2.1604   -0.0436 H       1  UNL1        0.0637
     12 H          -0.1629   -2.1604   -0.0416 H       1  UNL1        0.0637
     13 H          -2.6219    2.1488    0.0287 H       1  UNL1        0.0618
     14 H          -2.6224   -2.1481    0.0307 H       1  UNL1        0.0618
     15 H          -3.8619    0.0005    0.0678 H       1  UNL1        0.0618
     16 H           2.5282   -0.8604    1.9567 H       1  UNL1        0.1442
     17 H           2.5284    0.8615    1.9559 H       1  UNL1        0.1442
@<TRIPOS>BOND
     1     1     2    2
     2     1     3    2
     3     1     4    1
     4     1     5    1
     5     4    16    1
     6     4    17    1
     7     5     6   ar
     8     5     7   ar
     9     6     8   ar
    10     6    11    1
    11     7     9   ar
    12     7    12    1
    13     8    10   ar
    14     8    13    1
    15     9    10   ar
    16     9    14    1
    17    10    15    1
