@<TRIPOS>MOLECULE
31386
 25 26 0 0 0
SMALL
GASTEIGER

@<TRIPOS>ATOM
      1 S           0.0027   -1.3725    0.0003 S.O2    1  UNL1        0.0251
      2 O           0.0246   -2.1036   -1.2589 O.2     1  UNL1       -0.1643
      3 O          -0.0615   -2.1023    1.2598 O.2     1  UNL1       -0.1643
      4 C           1.4208   -0.3536    0.0022 C.ar    1  UNL1        0.0936
      5 C          -1.4347   -0.3351   -0.0020 C.ar    1  UNL1        0.0936
      6 C           1.9855    0.0536    1.2108 C.ar    1  UNL1       -0.0365
      7 C          -1.9770    0.0573   -1.2109 C.ar    1  UNL1       -0.0365
      8 C           1.9884    0.0537   -1.2051 C.ar    1  UNL1       -0.0365
      9 C          -1.9799    0.0583    1.2050 C.ar    1  UNL1       -0.0365
     10 C           3.1179    0.8681    1.2122 C.ar    1  UNL1       -0.0599
     11 C          -3.1077    0.8741   -1.2125 C.ar    1  UNL1       -0.0599
     12 C           3.1208    0.8682   -1.2037 C.ar    1  UNL1       -0.0599
     13 C          -3.1107    0.8752    1.2033 C.ar    1  UNL1       -0.0599
     14 C           3.6856    1.2754    0.0049 C.ar    1  UNL1       -0.0616
     15 C          -3.6746    1.2830   -0.0055 C.ar    1  UNL1       -0.0616
     16 H           1.5561   -0.2466    2.1624 H       1  UNL1        0.0637
     17 H          -1.5454   -0.2449   -2.1599 H       1  UNL1        0.0637
     18 H           1.5619   -0.2433   -2.1591 H       1  UNL1        0.0637
     19 H          -1.5512   -0.2395    2.1567 H       1  UNL1        0.0637
     20 H           3.5567    1.1866    2.1532 H       1  UNL1        0.0618
     21 H          -3.5458    1.1933   -2.1537 H       1  UNL1        0.0618
     22 H           3.5617    1.1872   -2.1436 H       1  UNL1        0.0618
     23 H          -3.5507    1.1957    2.1431 H       1  UNL1        0.0618
     24 H           4.5668    1.9103    0.0061 H       1  UNL1        0.0618
     25 H          -4.5544    1.9199   -0.0068 H       1  UNL1        0.0618
@<TRIPOS>BOND
     1     1     2    2
     2     1     3    2
     3     1     4    1
     4     1     5    1
     5     4     6   ar
     6     4     8   ar
     7     5     7   ar
     8     5     9   ar
     9     6    10   ar
    10     6    16    1
    11     7    11   ar
    12     7    17    1
    13     8    12   ar
    14     8    18    1
    15     9    13   ar
    16     9    19    1
    17    10    14   ar
    18    10    20    1
    19    11    15   ar
    20    11    21    1
    21    12    14   ar
    22    12    22    1
    23    13    15   ar
    24    13    23    1
    25    14    24    1
    26    15    25    1
