@<TRIPOS>MOLECULE
12000791
 16 16 0 0 0
SMALL
GASTEIGER

@<TRIPOS>ATOM
      1 S           1.7144    0.0121   -0.1094 S.O2    1  UNL1        0.0731
      2 O           2.1315   -1.2606   -0.6889 O.2     1  UNL1       -0.1518
      3 O           2.2015    1.2579   -0.6928 O.2     1  UNL1       -0.1518
      4 N          -0.5829   -1.1710   -0.0341 N.ar    1  UNL1       -0.2356
      5 N           2.1029    0.0055    1.5564 N.3     1  UNL1       -0.2021
      6 C          -0.0205    0.0583   -0.0540 C.ar    1  UNL1        0.1933
      7 C          -0.7412    1.2415   -0.0327 C.ar    1  UNL1       -0.0166
      8 C          -2.1284    1.1578    0.0121 C.ar    1  UNL1       -0.0570
      9 C          -2.7438   -0.0889    0.0338 C.ar    1  UNL1       -0.0435
     10 C          -1.9335   -1.2126    0.0095 C.ar    1  UNL1        0.0298
     11 H          -0.2541    2.2101   -0.0457 H       1  UNL1        0.0653
     12 H          -2.7289    2.0623    0.0311 H       1  UNL1        0.0619
     13 H          -3.8234   -0.1781    0.0690 H       1  UNL1        0.0633
     14 H           2.4770   -0.8645    1.9545 H       1  UNL1        0.1443
     15 H           2.5218    0.8567    1.9507 H       1  UNL1        0.1443
     16 H          -2.3642   -2.2083    0.0249 H       1  UNL1        0.0830
@<TRIPOS>BOND
     1     1     2    2
     2     1     3    2
     3     1     5    1
     4     1     6    1
     5     4     6   ar
     6     4    10   ar
     7     5    14    1
     8     5    15    1
     9     6     7   ar
    10     7     8   ar
    11     7    11    1
    12     8     9   ar
    13     8    12    1
    14     9    10   ar
    15     9    13    1
    16    10    16    1
