@<TRIPOS>MOLECULE
5143
 17 18 0 0 0
SMALL
GASTEIGER

@<TRIPOS>ATOM
      1 S          -1.6163   -0.8146    0.0000 S.O2    1  UNL1        0.0754
      2 O          -2.0135   -1.3702    1.2749 O.2     1  UNL1       -0.1499
      3 O          -2.0120   -1.3733   -1.2741 O.2     1  UNL1       -0.1499
      4 O          -0.5478    2.8682    0.0022 O.2     1  UNL1       -0.2685
      5 N          -1.8340    0.8846   -0.0024 N.am    1  UNL1       -0.1814
      6 C           0.1175   -0.6319    0.0007 C.ar    1  UNL1        0.1207
      7 C           0.5024    0.7092   -0.0010 C.ar    1  UNL1        0.0648
      8 C          -0.6307    1.6544   -0.0009 C.2     1  UNL1        0.2649
      9 C           1.0266   -1.6693    0.0012 C.ar    1  UNL1       -0.0343
     10 C           1.8427    1.0531   -0.0012 C.ar    1  UNL1       -0.0477
     11 C           2.3802   -1.3292    0.0009 C.ar    1  UNL1       -0.0599
     12 C           2.7849    0.0190   -0.0003 C.ar    1  UNL1       -0.0609
     13 H          -2.7650    1.3151    0.0074 H       1  UNL1        0.1769
     14 H           0.7132   -2.7066    0.0020 H       1  UNL1        0.0637
     15 H           2.1654    2.0885   -0.0021 H       1  UNL1        0.0626
     16 H           3.1328   -2.1132    0.0014 H       1  UNL1        0.0618
     17 H           3.8453    0.2582   -0.0005 H       1  UNL1        0.0618
@<TRIPOS>BOND
     1     1     2    2
     2     1     3    2
     3     1     5    1
     4     1     6    1
     5     4     8    2
     6     5     8   am
     7     5    13    1
     8     6     7   ar
     9     6     9   ar
    10     7     8    1
    11     7    10   ar
    12     9    11   ar
    13     9    14    1
    14    10    12   ar
    15    10    15    1
    16    11    12   ar
    17    11    16    1
    18    12    17    1
