@<TRIPOS>MOLECULE
15191028
 9 8 0 0 0
SMALL
GASTEIGER

@<TRIPOS>ATOM
      1 S           0.0000   -0.1460    0.0000 S.O2    1  UNL1        0.3080
      2 O           0.0000   -0.8837    1.2542 O.2     1  UNL1       -0.1164
      3 O           0.0000   -0.8832   -1.2545 O.2     1  UNL1       -0.1164
      4 N           1.2763    0.8838    0.0001 N.2     1  UNL1        0.2757
      5 N          -1.2763    0.8838    0.0001 N.2     1  UNL1        0.2757
      6 N           2.3794    0.3056    0.0001 N.2     1  UNL1        0.0131
      7 N          -2.3794    0.3056    0.0000 N.2     1  UNL1        0.0131
      8 N           3.3850   -0.2330    0.0000 N.2     1  UNL1       -0.3263
      9 N          -3.3850   -0.2330    0.0000 N.2     1  UNL1       -0.3263
@<TRIPOS>UNITY_ATOM_ATTR
6 1
charge 1
7 1
charge 1
8 1
charge -1
9 1
charge -1
@<TRIPOS>BOND
     1     1     2    2
     2     1     3    2
     3     1     4    1
     4     1     5    1
     5     4     6    2
     6     5     7    2
     7     6     8    2
     8     7     9    2
