@<TRIPOS>MOLECULE
12501714
 42 44 0 0 0
SMALL
GASTEIGER

@<TRIPOS>ATOM
      1 BR          0.4122   -2.7396    1.6864 Br      1  UNL1       -0.0477
      2 S          -1.0817    0.2476    1.8205 S.O2    1  UNL1        0.0267
      3 O          -1.2156    1.6491    2.1809 O.2     1  UNL1       -0.1643
      4 O          -1.1763   -0.7737    2.8501 O.2     1  UNL1       -0.1643
      5 C           0.3591    0.0292    0.9060 C.2     1  UNL1        0.1151
      6 C          -2.3380   -0.1160    0.6265 C.ar    1  UNL1        0.0936
      7 C           0.7492    1.2788    0.2721 C.ar    1  UNL1        0.0013
      8 C           0.9829   -1.1660    0.8344 C.2     1  UNL1        0.0508
      9 C          -2.7855   -1.4178    0.4973 C.ar    1  UNL1       -0.0362
     10 C          -2.8444    0.9089   -0.1511 C.ar    1  UNL1       -0.0362
     11 C           2.2158   -1.3148    0.0397 C.ar    1  UNL1       -0.0092
     12 C          -4.2988   -0.6853   -1.2376 C.ar    1  UNL1       -0.0503
     13 C          -3.7746   -1.7050   -0.4433 C.ar    1  UNL1       -0.0570
     14 C          -3.8337    0.6216   -1.0915 C.ar    1  UNL1       -0.0570
     15 C           0.2763    1.5916   -1.0025 C.ar    1  UNL1       -0.0527
     16 C           1.5963    2.1645    0.9384 C.ar    1  UNL1       -0.0527
     17 C           0.6506    2.7897   -1.6107 C.ar    1  UNL1       -0.0611
     18 C           1.9703    3.3627    0.3302 C.ar    1  UNL1       -0.0611
     19 C           3.4425   -1.0969    0.6450 C.ar    1  UNL1       -0.0535
     20 C           2.1225   -1.6697   -1.2959 C.ar    1  UNL1       -0.0535
     21 C          -5.3569   -0.9920   -2.2430 C.3     1  UNL1       -0.0397
     22 C           1.4974    3.6753   -0.9444 C.ar    1  UNL1       -0.0617
     23 C           4.6090   -1.2375   -0.1068 C.ar    1  UNL1       -0.0612
     24 C           3.2891   -1.8104   -2.0476 C.ar    1  UNL1       -0.0612
     25 C           4.5324   -1.5944   -1.4530 C.ar    1  UNL1       -0.0617
     26 H          -2.4182   -2.2272    1.1156 H       1  UNL1        0.0637
     27 H          -2.5051    1.9346   -0.0474 H       1  UNL1        0.0637
     28 H          -4.1317   -2.7264   -0.5453 H       1  UNL1        0.0621
     29 H          -4.2344    1.4246   -1.7044 H       1  UNL1        0.0621
     30 H          -0.3602    0.9033   -1.5520 H       1  UNL1        0.0624
     31 H           1.9743    1.9353    1.9319 H       1  UNL1        0.0624
     32 H           0.2878    3.0300   -2.6059 H       1  UNL1        0.0618
     33 H           2.6303    4.0519    0.8486 H       1  UNL1        0.0618
     34 H           3.5161   -0.8181    1.6928 H       1  UNL1        0.0624
     35 H           1.1602   -1.8403   -1.7712 H       1  UNL1        0.0624
     36 H          -5.9783   -1.8338   -1.9188 H       1  UNL1        0.0278
     37 H          -6.0261   -0.1367   -2.3857 H       1  UNL1        0.0278
     38 H          -4.8993   -1.2439   -3.2048 H       1  UNL1        0.0278
     39 H           1.7902    4.6075   -1.4186 H       1  UNL1        0.0618
     40 H           5.5770   -1.0689    0.3560 H       1  UNL1        0.0618
     41 H           3.2295   -2.0877   -3.0959 H       1  UNL1        0.0618
     42 H           5.4406   -1.7037   -2.0383 H       1  UNL1        0.0618
@<TRIPOS>BOND
     1     1     8    1
     2     2     3    2
     3     2     4    2
     4     2     5    1
     5     2     6    1
     6     5     7    1
     7     5     8    2
     8     6     9   ar
     9     6    10   ar
    10     7    15   ar
    11     7    16   ar
    12     8    11    1
    13     9    13   ar
    14     9    26    1
    15    10    14   ar
    16    10    27    1
    17    11    19   ar
    18    11    20   ar
    19    12    13   ar
    20    12    14   ar
    21    12    21    1
    22    13    28    1
    23    14    29    1
    24    15    17   ar
    25    15    30    1
    26    16    18   ar
    27    16    31    1
    28    17    22   ar
    29    17    32    1
    30    18    22   ar
    31    18    33    1
    32    19    23   ar
    33    19    34    1
    34    20    24   ar
    35    20    35    1
    36    21    36    1
    37    21    37    1
    38    21    38    1
    39    22    39    1
    40    23    25   ar
    41    23    40    1
    42    24    25   ar
    43    24    41    1
    44    25    42    1
