@<TRIPOS>MOLECULE
77898
 9 8 0 0 0
SMALL
GASTEIGER

@<TRIPOS>ATOM
      1 S           0.0000    0.1734    0.0000 S.O2    1  UNL1        0.1985
      2 O          -0.0001    0.9132    1.2544 O.2     1  UNL1       -0.1261
      3 O           0.0000    0.9119   -1.2553 O.2     1  UNL1       -0.1261
      4 O           3.3750    0.1949    0.0000 O.2     1  UNL1       -0.2085
      5 O          -3.3750    0.1949   -0.0001 O.2     1  UNL1       -0.2085
      6 N           1.2760   -0.8621    0.0004 N.2     1  UNL1       -0.0247
      7 N          -1.2760   -0.8621    0.0003 N.2     1  UNL1       -0.0247
      8 C           2.3234   -0.3320    0.0001 C.1     1  UNL1        0.2600
      9 C          -2.3233   -0.3320    0.0002 C.1     1  UNL1        0.2600
@<TRIPOS>BOND
     1     1     2    2
     2     1     3    2
     3     1     6    1
     4     1     7    1
     5     4     8    2
     6     5     9    2
     7     6     8    2
     8     7     9    2
