@<TRIPOS>MOLECULE
140987867
 18 16 0 0 0
SMALL
GASTEIGER

@<TRIPOS>ATOM
      1 S           1.1879   -0.6427   -1.9190 S.3     1  UNL1        0.2089
      2 S           1.5379    0.9580    2.1461 S.3     2  UNL2        0.2089
      3 O           2.5622    2.0864   -2.0949 O.2     1  UNL1       -0.2495
      4 O           2.6930   -1.8669    2.1847 O.2     2  UNL2       -0.2495
      5 O           0.2351    0.5134   -1.7668 O.2     1  UNL1       -0.1287
      6 O           0.8920   -1.8493   -1.0605 O.2     1  UNL1       -0.1287
      7 O           0.4825   -0.1027    1.9771 O.2     2  UNL2       -0.1287
      8 O           1.3073    2.2320    1.3692 O.2     2  UNL2       -0.1287
      9 N           4.4120    1.1459   -1.2472 N.am    1  UNL1       -0.3107
     10 N           4.5514   -1.0689    1.2126 N.am    2  UNL2       -0.3107
     11 N           2.5771   -0.2056   -1.5540 N.am    1  UNL1       -0.0237
     12 N           2.8641    0.4265    1.6825 N.am    2  UNL2       -0.0237
     13 C           3.1177    1.0913   -1.6589 C.2     1  UNL1        0.3391
     14 C           3.2960   -0.9132    1.7188 C.2     2  UNL2        0.3391
     15 H           4.9124    0.2885   -1.0772 H       1  UNL1        0.1466
     16 H           4.8935    2.0279   -1.3381 H       1  UNL1        0.1466
     17 H           5.1403   -0.2538    1.1491 H       2  UNL2        0.1466
     18 H           4.9670   -1.9816    1.3399 H       2  UNL2        0.1466
@<TRIPOS>BOND
     1     1     5    2
     2     1     6    2
     3     1    11    2
     4     2     7    2
     5     2     8    2
     6     2    12    2
     7     3    13    2
     8     4    14    2
     9     9    13   am
    10     9    15    1
    11     9    16    1
    12    10    14   am
    13    10    17    1
    14    10    18    1
    15    11    13    1
    16    12    14    1
