@<TRIPOS>MOLECULE
23226805
 16 16 0 0 0
SMALL
GASTEIGER

@<TRIPOS>ATOM
      1 S           2.0150   -0.1182    0.3573 S.3     1  UNL1        0.1321
      2 O          -2.0212   -1.0425   -0.2304 O.3     1  UNL1       -0.3710
      3 O           2.2981    1.2778    0.0996 O.2     1  UNL1       -0.1457
      4 O           2.4895   -1.1584   -0.5309 O.2     1  UNL1       -0.1457
      5 N          -0.2068    1.0533   -0.0363 N.am    1  UNL1       -0.3274
      6 C          -1.5933    1.2977   -0.3757 C.3     1  UNL1        0.0335
      7 C          -2.4978    0.2294    0.2054 C.3     1  UNL1        0.0636
      8 C          -0.7490   -1.3259    0.3169 C.3     1  UNL1        0.1045
      9 C           0.2655   -0.2131    0.1940 C.2     1  UNL1        0.1697
     10 H          -1.6475    1.2924   -1.4697 H       1  UNL1        0.0484
     11 H          -1.8661    2.2931   -0.0141 H       1  UNL1        0.0484
     12 H          -2.5212    0.2613    1.3013 H       1  UNL1        0.0575
     13 H          -3.5212    0.3566   -0.1604 H       1  UNL1        0.0575
     14 H          -0.3455   -2.2124   -0.1817 H       1  UNL1        0.0637
     15 H          -0.8556   -1.5715    1.3797 H       1  UNL1        0.0637
     16 H           0.4333    1.8382   -0.1065 H       1  UNL1        0.1472
@<TRIPOS>BOND
     1     1     3    2
     2     1     4    2
     3     1     9    2
     4     2     7    1
     5     2     8    1
     6     5     6    1
     7     5     9    1
     8     5    16    1
     9     6     7    1
    10     6    10    1
    11     6    11    1
    12     7    12    1
    13     7    13    1
    14     8     9    1
    15     8    14    1
    16     8    15    1
