@<TRIPOS>MOLECULE
82267
 9 8 0 0 0
SMALL
GASTEIGER

@<TRIPOS>ATOM
      1 S           0.0001   -0.1566    0.0042 S.O2    1  UNL1        0.0896
      2 O           0.0007   -0.9136   -1.2324 O.2     1  UNL1       -0.1417
      3 O           0.0001   -0.8269    1.2900 O.2     1  UNL1       -0.1417
      4 N           1.3107    0.9492   -0.0306 N.3     1  UNL1       -0.1936
      5 N          -1.3116    0.9479   -0.0312 N.3     1  UNL1       -0.1936
      6 H           2.2234    0.5484   -0.2857 H       1  UNL1        0.1453
      7 H           1.4024    1.5552    0.7960 H       1  UNL1        0.1453
      8 H          -2.2239    0.5463   -0.2868 H       1  UNL1        0.1453
      9 H          -1.4043    1.5538    0.7954 H       1  UNL1        0.1453
@<TRIPOS>BOND
     1     1     2    2
     2     1     3    2
     3     1     4    1
     4     1     5    1
     5     4     6    1
     6     4     7    1
     7     5     8    1
     8     5     9    1
