@<TRIPOS>MOLECULE
6924
 20 20 0 0 0
SMALL
GASTEIGER

@<TRIPOS>ATOM
      1 S           1.7605    0.2292    0.1072 S.O2    1  UNL1        0.0562
      2 O           2.1854    1.4872    0.7019 O.2     1  UNL1       -0.1532
      3 O           2.2135   -1.0320    0.6740 O.2     1  UNL1       -0.1532
      4 N           2.1344    0.2501   -1.5591 N.3     1  UNL1       -0.2035
      5 C           0.0114    0.2124    0.0523 C.ar    1  UNL1        0.1079
      6 C          -0.6992   -0.9873    0.0171 C.ar    1  UNL1       -0.0241
      7 C          -0.6720    1.4284    0.0438 C.ar    1  UNL1       -0.0351
      8 C          -2.0933   -0.9711   -0.0267 C.ar    1  UNL1       -0.0570
      9 C           0.0019   -2.3062    0.0248 C.3     1  UNL1       -0.0379
     10 C          -2.0661    1.4446    0.0000 C.ar    1  UNL1       -0.0599
     11 C          -2.7768    0.2448   -0.0353 C.ar    1  UNL1       -0.0614
     12 H          -0.1420    2.3765    0.0628 H       1  UNL1        0.0637
     13 H          -2.6636   -1.8959   -0.0531 H       1  UNL1        0.0621
     14 H           0.7703   -2.3688   -0.7518 H       1  UNL1        0.0278
     15 H           0.4026   -2.5378    1.0161 H       1  UNL1        0.0278
     16 H          -0.7018   -3.1151   -0.2097 H       1  UNL1        0.0278
     17 H          -2.5985    2.3912   -0.0083 H       1  UNL1        0.0618
     18 H          -3.8622    0.2577   -0.0694 H       1  UNL1        0.0618
     19 H           2.5177    1.1187   -1.9514 H       1  UNL1        0.1442
     20 H           2.5339   -0.6029   -1.9691 H       1  UNL1        0.1442
@<TRIPOS>BOND
     1     1     2    2
     2     1     3    2
     3     1     4    1
     4     1     5    1
     5     4    19    1
     6     4    20    1
     7     5     6   ar
     8     5     7   ar
     9     6     8   ar
    10     6     9    1
    11     7    10   ar
    12     7    12    1
    13     8    11   ar
    14     8    13    1
    15     9    14    1
    16     9    15    1
    17     9    16    1
    18    10    11   ar
    19    10    17    1
    20    11    18    1
