@<TRIPOS>MOLECULE
5_methylcytidine
 33 34 0 0 0
SMALL
GASTEIGER

@<TRIPOS>ATOM
      1 O4*        -1.4762   -0.4949    1.0572 O.3     1  UNL1       -0.3456
      2 O2*        -1.6330    2.2933   -1.1924 O.3     1  UNL1       -0.3847
      3 O3*        -3.7246    1.3235    0.2648 O.3     1  UNL1       -0.3864
      4 O5*        -2.1369   -3.1466    0.4252 O.3     1  UNL1       -0.3924
      5 O           1.1249    2.6436    0.6389 O.2     1  UNL1       -0.2444
      6 N           0.5204    0.4463    0.2874 N.ar    1  UNL1       -0.2697
      7 N           2.8080    1.1908    0.1925 N.ar    1  UNL1       -0.1781
      8 N           4.5504   -0.2580   -0.2597 N.pl3   1  UNL1       -0.3427
      9 C2*        -1.6115    0.9270   -0.8336 C.3     1  UNL1        0.1286
     10 C3*        -2.9945    0.3902   -0.5311 C.3     1  UNL1        0.1135
     11 C1*        -0.8833    0.6779    0.4760 C.3     1  UNL1        0.1680
     12 C4*        -2.6835   -0.8227    0.3352 C.3     1  UNL1        0.1126
     13 C5*        -2.4250   -2.0882   -0.4715 C.3     1  UNL1        0.0730
     14 C           0.9498   -0.8401    0.0000 C.ar    1  UNL1        0.0181
     15 C           1.4724    1.4888    0.3859 C.ar    1  UNL1        0.3522
     16 C           2.2321   -1.1613   -0.1929 C.ar    1  UNL1        0.0055
     17 C           3.2042   -0.0273   -0.0784 C.ar    1  UNL1        0.1259
     18 C           2.7063   -2.5424   -0.5033 C.3     1  UNL1       -0.0351
     19 H2*        -1.1673    0.3592   -1.6600 H       1  UNL1        0.0665
     20 H3*        -3.5902    0.1745   -1.4219 H       1  UNL1        0.0647
     21 H1*        -1.0178    1.5124    1.1745 H       1  UNL1        0.0867
     22 H4*        -3.4596   -1.0098    1.0861 H       1  UNL1        0.0647
     23 H5*1       -1.5912   -1.9850   -1.1700 H       1  UNL1        0.0584
     24 H5*2       -3.3189   -2.3588   -1.0433 H       1  UNL1        0.0584
     25 H2*        -0.7101    2.5854   -1.2842 H       1  UNL1        0.2101
     26 H3*        -3.2635    1.4475    1.1110 H       1  UNL1        0.2100
     27 H           0.2070   -1.6196   -0.0684 H       1  UNL1        0.0815
     28 H5*        -1.9877   -3.9440   -0.1109 H       1  UNL1        0.2095
     29 H           1.8771   -3.2563   -0.5535 H       1  UNL1        0.0279
     30 H           3.3975   -2.8947    0.2691 H       1  UNL1        0.0279
     31 H           3.2187   -2.5648   -1.4706 H       1  UNL1        0.0279
     32 H           4.9243   -1.1763   -0.4721 H       1  UNL1        0.1437
     33 H           5.2188    0.5015   -0.1850 H       1  UNL1        0.1437
@<TRIPOS>BOND
     1     1    11    1
     2     1    12    1
     3     2     9    1
     4     2    25    1
     5     3    10    1
     6     3    26    1
     7     4    13    1
     8     4    28    1
     9     5    15    2
    10     6    11    1
    11     6    14   ar
    12     6    15   ar
    13     7    15   ar
    14     7    17   ar
    15     8    17    1
    16     8    32    1
    17     8    33    1
    18     9    10    1
    19     9    11    1
    20     9    19    1
    21    10    12    1
    22    10    20    1
    23    11    21    1
    24    12    13    1
    25    12    22    1
    26    13    23    1
    27    13    24    1
    28    14    16   ar
    29    14    27    1
    30    16    17   ar
    31    16    18    1
    32    18    29    1
    33    18    30    1
    34    18    31    1
