@<TRIPOS>MOLECULE
5_methyluridine
 32 33 0 0 0
SMALL
GASTEIGER

@<TRIPOS>ATOM
      1 O4*        -1.4639    0.4996   -1.0595 O.3     1    T1       -0.3456
      2 O2*        -1.6704   -2.2788    1.1982 O.3     1    T1       -0.3847
      3 O3*        -3.7453   -1.2732   -0.2583 O.3     1    T1       -0.3864
      4 O5*        -2.0727    3.1652   -0.4340 O.3     1    T1       -0.3924
      5 O2          1.1040   -2.7099   -0.6391 O.2     1    T1       -0.2464
      6 O4          4.4702    0.2903    0.2649 O.2     1    T1       -0.2674
      7 N1          0.5156   -0.4775   -0.2902 N.ar    1    T1       -0.2712
      8 N3          2.7729   -1.2030   -0.1867 N.ar    1    T1       -0.2747
      9 C2*        -1.6232   -0.9142    0.8356 C.3     1    T1        0.1286
     10 C3*        -2.9963   -0.3518    0.5337 C.3     1    T1        0.1135
     11 C1*        -0.8926   -0.6828   -0.4759 C.3     1    T1        0.1679
     12 C4*        -2.6636    0.8525   -0.3365 C.3     1    T1        0.1126
     13 C5*        -2.3795    2.1150    0.4662 C.3     1    T1        0.0730
     14 C6          0.9686    0.8059   -0.0064 C.ar    1    T1        0.0200
     15 C2          1.4321   -1.5478   -0.3907 C.ar    1    T1        0.3314
     16 C5          2.2522    1.1323    0.1884 C.ar    1    T1        0.0302
     17 C4          3.2760    0.0575    0.0977 C.ar    1    T1        0.2568
     18 C5M         2.7158    2.5206    0.4926 C.3     1    T1       -0.0332
     19 H2*        -1.1669   -0.3527    1.6597 H       1    T1        0.0665
     20 H3*        -3.5862   -0.1223    1.4248 H       1    T1        0.0647
     21 H1*        -1.0434   -1.5171   -1.1713 H       1    T1        0.0867
     22 H4*        -3.4371    1.0522   -1.0867 H       1    T1        0.0647
     23 H5*1       -1.5474    1.9982    1.1644 H       1    T1        0.0584
     24 H5*2       -3.2673    2.4044    1.0381 H       1    T1        0.0584
     25 H2*        -0.7532   -2.5880    1.2907 H       1    T1        0.2101
     26 H3*        -3.2878   -1.4089   -1.1047 H       1    T1        0.2100
     27 H6          0.2323    1.5919    0.0586 H       1    T1        0.0816
     28 H3          3.4495   -1.9581   -0.2548 H       1    T1        0.1734
     29 H5*        -1.9074    3.9611    0.0996 H       1    T1        0.2095
     30 H5M1        3.2281    2.5493    1.4597 H       1    T1        0.0280
     31 H5M2        1.8830    3.2306    0.5365 H       1    T1        0.0280
     32 H5M3        3.4095    2.8698   -0.2792 H       1    T1        0.0280
@<TRIPOS>BOND
     1     1    11    1
     2     1    12    1
     3     2     9    1
     4     2    25    1
     5     3    10    1
     6     3    26    1
     7     4    13    1
     8     4    29    1
     9     5    15    2
    10     6    17    2
    11     7    11    1
    12     7    14   ar
    13     7    15   ar
    14     8    15   ar
    15     8    17   ar
    16     8    28    1
    17     9    10    1
    18     9    11    1
    19     9    19    1
    20    10    12    1
    21    10    20    1
    22    11    21    1
    23    12    13    1
    24    12    22    1
    25    13    23    1
    26    13    24    1
    27    14    16   ar
    28    14    27    1
    29    16    17   ar
    30    16    18    1
    31    18    30    1
    32    18    31    1
    33    18    32    1
