@<TRIPOS>MOLECULE
7_methylguanosine
 37 39 0 0 0
SMALL
GASTEIGER

@<TRIPOS>ATOM
      1 O4*         2.3318   -0.3101   -1.0312 O.3     1  UNL1       -0.3094
      2 O2*         1.3902    2.1769    1.3994 O.3     1  UNL1       -0.3803
      3 O3*         3.6127    2.3122   -0.2176 O.3     1  UNL1       -0.3862
      4 O5*         4.1856   -2.3746   -0.6394 O.3     1  UNL1       -0.3924
      5 O          -4.3442   -1.5339    0.3114 O.2     1  UNL1       -0.2653
      6 N           0.0482   -0.2835   -0.1698 N.ar    1  UNL1       -0.1331
      7 N          -1.2958   -1.9359    0.1946 N.ar    1  UNL1       -0.2863
      8 N          -1.5819    1.5445   -0.3821 N.ar    1  UNL1       -0.1527
      9 N          -3.7980    0.6732   -0.0981 N.ar    1  UNL1       -0.2933
     10 N          -3.4479    2.9575   -0.5098 N.pl3   1  UNL1       -0.3288
     11 C1*         1.3254    0.4942   -0.3822 C.3     1  UNL1        0.2980
     12 C2*         1.9554    0.9724    0.9219 C.3     1  UNL1        0.1728
     13 C3*         3.4133    1.1152    0.5331 C.3     1  UNL1        0.1183
     14 C4*         3.6122   -0.0673   -0.4065 C.3     1  UNL1        0.1169
     15 C5*         4.0389   -1.3381    0.3154 C.3     1  UNL1        0.0732
     16 C          -1.2260    0.2486   -0.1823 C.ar    1  UNL1        0.3406
     17 C          -0.0092   -1.6000    0.0583 C.ar    1  UNL1        0.2523
     18 C          -2.0747   -0.8135    0.0509 C.ar    1  UNL1        0.2043
     19 C          -3.4851   -0.6786    0.1134 C.ar    1  UNL1        0.2832
     20 C          -1.7690   -3.2801    0.4538 C.3     1  UNL1        0.0175
     21 C          -2.8819    1.7208   -0.3330 C.ar    1  UNL1        0.1989
     22 H1*         1.0882    1.3317   -1.0497 H       1  UNL1        0.1445
     23 H2*         1.8392    0.2053    1.6966 H       1  UNL1        0.0716
     24 H3*         4.0914    1.1394    1.3909 H       1  UNL1        0.0649
     25 H4*         4.3179    0.1542   -1.2152 H       1  UNL1        0.0648
     26 H5*1        4.9953   -1.1939    0.8274 H       1  UNL1        0.0584
     27 H5*2        3.2855   -1.6608    1.0407 H       1  UNL1        0.0584
     28 H           0.8317   -2.2719    0.1242 H       1  UNL1        0.1602
     29 H2*         1.9161    2.4614    2.1661 H       1  UNL1        0.2103
     30 H3*         4.5504    2.3418   -0.4739 H       1  UNL1        0.2100
     31 H          -2.3154   -3.2961    1.4006 H       1  UNL1        0.0457
     32 H          -2.4235   -3.5980   -0.3623 H       1  UNL1        0.0457
     33 H          -0.9221   -3.9688    0.5198 H       1  UNL1        0.0457
     34 H5*         4.4601   -3.1726   -0.1565 H       1  UNL1        0.2095
     35 H          -4.7834    0.9208   -0.0804 H       1  UNL1        0.1716
     36 H          -2.8756    3.7763   -0.6846 H       1  UNL1        0.1451
     37 H          -4.4525    3.0903   -0.4713 H       1  UNL1        0.1451
@<TRIPOS>UNITY_ATOM_ATTR
6 1
charge 1
@<TRIPOS>BOND
     1     1    11    1
     2     1    14    1
     3     2    12    1
     4     2    29    1
     5     3    13    1
     6     3    30    1
     7     4    15    1
     8     4    34    1
     9     5    19    2
    10     6    11    1
    11     6    16   ar
    12     6    17   ar
    13     7    17   ar
    14     7    18   ar
    15     7    20    1
    16     8    16   ar
    17     8    21   ar
    18     9    19   ar
    19     9    21   ar
    20     9    35    1
    21    10    21    1
    22    10    36    1
    23    10    37    1
    24    11    12    1
    25    11    22    1
    26    12    13    1
    27    12    23    1
    28    13    14    1
    29    13    24    1
    30    14    15    1
    31    14    25    1
    32    15    26    1
    33    15    27    1
    34    16    18   ar
    35    17    28    1
    36    18    19   ar
    37    20    31    1
    38    20    32    1
    39    20    33    1
