@<TRIPOS>MOLECULE
adenosine
 32 34 0 0 0
SMALL
GASTEIGER

@<TRIPOS>ATOM
      1 O4*         1.9998   -0.5205   -0.9524 O.3     1    A1       -0.3457
      2 O2*         1.2085    2.2652    1.1770 O.3     1    A1       -0.3847
      3 O3*         3.4012    2.1355   -0.4232 O.3     1    A1       -0.3864
      4 O5*         3.7891   -2.6031   -0.3835 O.3     1    A1       -0.3924
      5 N9         -0.2134   -0.2591   -0.1379 N.ar    1    A1       -0.2855
      6 N7         -1.6397   -1.8913    0.3913 N.ar    1    A1       -0.2306
      7 N3         -1.7853    1.5466   -0.5513 N.ar    1    A1       -0.2159
      8 N1         -4.0890    0.8118   -0.2214 N.ar    1    A1       -0.2188
      9 N6         -4.6438   -1.4234    0.4295 N.pl3   1    A1       -0.3413
     10 C2*         1.7170    0.9876    0.8516 C.3     1    A1        0.1285
     11 C1*         1.0575    0.4149   -0.3937 C.3     1    A1        0.1667
     12 C3*         3.1742    1.0172    0.4346 C.3     1    A1        0.1135
     13 C4*         3.3045   -0.2641   -0.3829 C.3     1    A1        0.1126
     14 C5*         3.7054   -1.4672    0.4592 C.3     1    A1        0.0730
     15 C4         -1.4639    0.2870   -0.2203 C.ar    1    A1        0.1674
     16 C8         -0.3728   -1.5695    0.2323 C.ar    1    A1        0.1004
     17 C5         -2.3326   -0.7403    0.1117 C.ar    1    A1        0.1473
     18 C6         -3.6915   -0.4420    0.1040 C.ar    1    A1        0.1472
     19 C2         -3.1253    1.7148   -0.5244 C.ar    1    A1        0.1205
     20 H2*         1.5809    0.3255    1.7146 H       1    A1        0.0665
     21 H1*         0.8615    1.1833   -1.1517 H       1    A1        0.0866
     22 H3*         3.8662    1.0958    1.2779 H       1    A1        0.0647
     23 H4*         3.9968   -0.1521   -1.2252 H       1    A1        0.0647
     24 H5*1        2.9710   -1.6864    1.2404 H       1    A1        0.0584
     25 H5*2        4.6819   -1.3126    0.9273 H       1    A1        0.0584
     26 H2*         1.3811    2.8579    0.4257 H       1    A1        0.2101
     27 H3*         4.3301    2.0980   -0.7086 H       1    A1        0.2100
     28 H8          0.4627   -2.2408    0.3766 H       1    A1        0.1030
     29 H5*         2.9169   -2.7275   -0.7954 H       1    A1        0.2095
     30 H2         -3.4792    2.7078   -0.7798 H       1    A1        0.1048
     31 H61        -4.3498   -2.3596    0.6729 H       1    A1        0.1438
     32 H62        -5.6254   -1.1820    0.4170 H       1    A1        0.1438
@<TRIPOS>BOND
     1     1    11    1
     2     1    13    1
     3     2    10    1
     4     2    26    1
     5     3    12    1
     6     3    27    1
     7     4    14    1
     8     4    29    1
     9     5    11    1
    10     5    15   ar
    11     5    16   ar
    12     6    16   ar
    13     6    17   ar
    14     7    15   ar
    15     7    19   ar
    16     8    18   ar
    17     8    19   ar
    18     9    18    1
    19     9    31    1
    20     9    32    1
    21    10    11    1
    22    10    12    1
    23    10    20    1
    24    11    21    1
    25    12    13    1
    26    12    22    1
    27    13    14    1
    28    13    23    1
    29    14    24    1
    30    14    25    1
    31    15    17   ar
    32    16    28    1
    33    17    18   ar
    34    19    30    1
