@<TRIPOS>MOLECULE
cytidine
 30 31 0 0 0
SMALL
GASTEIGER

@<TRIPOS>ATOM
      1 O4*        -1.3683   -0.5375    1.0213 O.3     1    C1       -0.3456
      2 O2*        -1.2310    2.3579   -1.0898 O.3     1    C1       -0.3847
      3 O3*        -3.4011    1.5647    0.3593 O.3     1    C1       -0.3864
      4 O5*        -2.3406   -3.0610    0.2768 O.3     1    C1       -0.3924
      5 O2          1.5749    2.2990    0.7017 O.2     1    C1       -0.2444
      6 N1          0.7134    0.2043    0.2592 N.ar    1    C1       -0.2700
      7 N3          3.0757    0.6863    0.1552 N.ar    1    C1       -0.1783
      8 N4          4.6080   -0.9701   -0.4074 N.pl3   1    C1       -0.3430
      9 C2*        -1.3632    0.9821   -0.7969 C.3     1    C1        0.1286
     10 C3*        -2.7950    0.5939   -0.4939 C.3     1    C1        0.1135
     11 C1*        -0.6513    0.5865    0.4853 C.3     1    C1        0.1680
     12 C4*        -2.6152   -0.6880    0.3077 C.3     1    C1        0.1126
     13 C5*        -2.5160   -1.9335   -0.5629 C.3     1    C1        0.0730
     14 C6          0.9872   -1.1073   -0.0972 C.ar    1    C1        0.0152
     15 C2          1.7835    1.1256    0.3883 C.ar    1    C1        0.3522
     16 C5          2.2224   -1.5489   -0.3268 C.ar    1    C1       -0.0056
     17 C4          3.3166   -0.5540   -0.1800 C.ar    1    C1        0.1230
     18 H2*        -0.9990    0.4085   -1.6576 H       1    C1        0.0665
     19 H3*        -3.4236    0.4926   -1.3823 H       1    C1        0.0647
     20 H1*        -0.6785    1.3954    1.2251 H       1    C1        0.0867
     21 H4*        -3.3975   -0.8213    1.0636 H       1    C1        0.0647
     22 H5*1       -1.6847   -1.8924   -1.2707 H       1    C1        0.0584
     23 H5*2       -3.4425   -2.0707   -1.1302 H       1    C1        0.0584
     24 H2*        -0.2819    2.5459   -1.1852 H       1    C1        0.2101
     25 H3*        -2.9172    1.5931    1.2014 H       1    C1        0.2100
     26 H6          0.1691   -1.8039   -0.1908 H       1    C1        0.0812
     27 H5*        -2.2935   -3.8430   -0.2991 H       1    C1        0.2095
     28 H5          2.4436   -2.5709   -0.6039 H       1    C1        0.0666
     29 H41         4.8271   -1.9257   -0.6690 H       1    C1        0.1437
     30 H42         5.3859   -0.3252   -0.3189 H       1    C1        0.1437
@<TRIPOS>BOND
     1     1    11    1
     2     1    12    1
     3     2     9    1
     4     2    24    1
     5     3    10    1
     6     3    25    1
     7     4    13    1
     8     4    27    1
     9     5    15    2
    10     6    11    1
    11     6    14   ar
    12     6    15   ar
    13     7    15   ar
    14     7    17   ar
    15     8    17    1
    16     8    29    1
    17     8    30    1
    18     9    10    1
    19     9    11    1
    20     9    18    1
    21    10    12    1
    22    10    19    1
    23    11    20    1
    24    12    13    1
    25    12    21    1
    26    13    22    1
    27    13    23    1
    28    14    16   ar
    29    14    26    1
    30    16    17   ar
    31    16    28    1
