@<TRIPOS>MOLECULE
deoxyuridine
 28 29 0 0 0
SMALL
GASTEIGER

@<TRIPOS>ATOM
      1 O4*         1.4721   -0.2245   -0.9784 O.3     1    U1       -0.3483
      2 O3*         3.4771    1.8475    0.0506 O.3     1    U1       -0.3890
      3 O5*         2.4927   -2.7899   -0.4980 O.3     1    U1       -0.3924
      4 O2         -1.5659    2.4795   -0.4427 O.2     1    U1       -0.2464
      5 O4         -4.4302   -1.0497    0.3227 O.2     1    U1       -0.2677
      6 N1         -0.6479    0.3485   -0.1708 N.ar    1    U1       -0.2740
      7 N3         -2.9906    0.7208   -0.0607 N.ar    1    U1       -0.2749
      8 C3*         2.8233    0.7607    0.7023 C.3     1    U1        0.0876
      9 C2*         1.3835    1.1258    0.9806 C.3     1    U1        0.0214
     10 C1*         0.7014    0.8028   -0.3389 C.3     1    U1        0.1422
     11 C4*         2.7015   -0.4185   -0.2528 C.3     1    U1        0.1100
     12 C5*         2.6140   -1.7578    0.4673 C.3     1    U1        0.0729
     13 C2         -1.7151    1.2726   -0.2399 C.ar    1    U1        0.3313
     14 C6         -0.9005   -0.9976    0.0593 C.ar    1    U1        0.0170
     15 C5         -2.1219   -1.5086    0.2282 C.ar    1    U1        0.0192
     16 C4         -3.2937   -0.6117    0.1713 C.ar    1    U1        0.2539
     17 H3*         3.3940    0.5266    1.6058 H       1    U1        0.0621
     18 H1*         0.7230    1.6788   -0.9980 H       1    U1        0.0840
     19 H2*1        0.9934    0.4971    1.7902 H       1    U1        0.0335
     20 H2*2        1.2332    2.1720    1.2649 H       1    U1        0.0335
     21 H4*         3.5092   -0.4398   -0.9930 H       1    U1        0.0646
     22 H5*1        1.7671   -1.8168    1.1548 H       1    U1        0.0584
     23 H5*2        3.5302   -1.9360    1.0402 H       1    U1        0.0584
     24 H3*         3.4825    2.5971    0.6701 H       1    U1        0.2099
     25 H6         -0.0603   -1.6730    0.0954 H       1    U1        0.0813
     26 H3         -3.7743    1.3661   -0.1062 H       1    U1        0.1734
     27 H5         -2.2830   -2.5653    0.4026 H       1    U1        0.0686
     28 H5*         2.4528   -3.6320   -0.0134 H       1    U1        0.2095
@<TRIPOS>BOND
     1     1    10    1
     2     1    11    1
     3     2     8    1
     4     2    24    1
     5     3    12    1
     6     3    28    1
     7     4    13    2
     8     5    16    2
     9     6    10    1
    10     6    13   ar
    11     6    14   ar
    12     7    13   ar
    13     7    16   ar
    14     7    26    1
    15     8     9    1
    16     8    11    1
    17     8    17    1
    18     9    10    1
    19     9    19    1
    20     9    20    1
    21    10    18    1
    22    11    12    1
    23    11    21    1
    24    12    22    1
    25    12    23    1
    26    14    15   ar
    27    14    25    1
    28    15    16   ar
    29    15    27    1
