@<TRIPOS>MOLECULE
deoxyguanosine
 32 34 0 0 0
SMALL
GASTEIGER

@<TRIPOS>ATOM
      1 O4*        -2.3318   -0.1686    0.9246 O.3     1    G1       -0.3484
      2 O3*        -3.3977    2.5335   -0.0634 O.3     1    G1       -0.3890
      3 O5*        -4.3477   -2.0828    0.6241 O.3     1    G1       -0.3924
      4 O6          4.1604   -1.9382   -0.3132 O.2     1    G1       -0.2654
      5 N9         -0.0387   -0.3199    0.0906 N.ar    1    G1       -0.2878
      6 N7          1.1997   -2.1570   -0.2146 N.ar    1    G1       -0.2286
      7 N3          1.6942    1.3630    0.2461 N.ar    1    G1       -0.1963
      8 N1          3.8548    0.3538    0.0142 N.ar    1    G1       -0.2934
      9 N2          3.6405    2.6755    0.3412 N.pl3   1    G1       -0.3289
     10 C1*        -1.2671    0.5380    0.2609 C.3     1    G1        0.1408
     11 C3*        -3.2900    1.2678   -0.7105 C.3     1    G1        0.0876
     12 C2*        -1.8399    1.0318   -1.0631 C.3     1    G1        0.0213
     13 C4*        -3.5845    0.1558    0.2881 C.3     1    G1        0.1100
     14 C5*        -4.1147   -1.1073   -0.3766 C.3     1    G1        0.0729
     15 C4          1.2613    0.0923    0.0908 C.ar    1    G1        0.1711
     16 C8         -0.0243   -1.6806   -0.0964 C.ar    1    G1        0.1004
     17 C5          1.9938   -1.0548   -0.0980 C.ar    1    G1        0.1721
     18 C6          3.4272   -0.9714   -0.1487 C.ar    1    G1        0.2803
     19 C2          3.0047    1.4690    0.2038 C.ar    1    G1        0.1950
     20 H1*        -0.9668    1.3678    0.9116 H       1    G1        0.0840
     21 H3*        -3.9510    1.2763   -1.5819 H       1    G1        0.0621
     22 H2*1       -1.7613    0.2558   -1.8336 H       1    G1        0.0335
     23 H2*2       -1.3169    1.9255   -1.4176 H       1    G1        0.0335
     24 H4*        -4.2690    0.4771    1.0811 H       1    G1        0.0646
     25 H5*1       -3.3893   -1.5231   -1.0831 H       1    G1        0.0584
     26 H5*2       -5.0555   -0.9086   -0.8992 H       1    G1        0.0584
     27 H8         -0.9310   -2.2683   -0.1409 H       1    G1        0.1030
     28 H3*        -4.3270    2.6462    0.2002 H       1    G1        0.2099
     29 H5*        -4.6867   -2.8770    0.1770 H       1    G1        0.2095
     30 H1          4.8557    0.5266   -0.0056 H       1    G1        0.1716
     31 H21         3.1162    3.5323    0.4811 H       1    G1        0.1451
     32 H22         4.6515    2.7475    0.3071 H       1    G1        0.1451
@<TRIPOS>BOND
     1     1    10    1
     2     1    13    1
     3     2    11    1
     4     2    28    1
     5     3    14    1
     6     3    29    1
     7     4    18    2
     8     5    10    1
     9     5    15   ar
    10     5    16   ar
    11     6    16   ar
    12     6    17   ar
    13     7    15   ar
    14     7    19   ar
    15     8    18   ar
    16     8    19   ar
    17     8    30    1
    18     9    19    1
    19     9    31    1
    20     9    32    1
    21    10    12    1
    22    10    20    1
    23    11    12    1
    24    11    13    1
    25    11    21    1
    26    12    22    1
    27    12    23    1
    28    13    14    1
    29    13    24    1
    30    14    25    1
    31    14    26    1
    32    15    17   ar
    33    16    27    1
    34    17    18   ar
