@<TRIPOS>MOLECULE
deoxycytidine
 29 30 0 0 0
SMALL
GASTEIGER

@<TRIPOS>ATOM
      1 O4*         1.4742   -0.2211   -0.9783 O.3     1    C1       -0.3483
      2 O3*         3.4689    1.8651    0.0420 O.3     1    C1       -0.3890
      3 O5*         2.5083   -2.7794   -0.4887 O.3     1    C1       -0.3924
      4 O2         -1.5969    2.4305   -0.4389 O.2     1    C1       -0.2444
      5 N1         -0.6484    0.3439   -0.1720 N.ar    1    C1       -0.2725
      6 N3         -3.0287    0.7104   -0.0610 N.ar    1    C1       -0.1783
      7 N4         -4.4901   -1.0562    0.3283 N.pl3   1    C1       -0.3430
      8 C3*         2.8210    0.7774    0.6980 C.3     1    C1        0.0876
      9 C2*         1.3794    1.1361    0.9756 C.3     1    C1        0.0214
     10 C4*         2.7049   -0.4060   -0.2526 C.3     1    C1        0.1100
     11 C1*         0.6985    0.8046   -0.3424 C.3     1    C1        0.1423
     12 C5*         2.6246   -1.7430    0.4727 C.3     1    C1        0.0729
     13 C6         -0.8637   -1.0044    0.0614 C.ar    1    C1        0.0151
     14 C2         -1.7554    1.2256   -0.2346 C.ar    1    C1        0.3521
     15 C5         -2.0799   -1.5191    0.2321 C.ar    1    C1       -0.0056
     16 C4         -3.2166   -0.5646    0.1583 C.ar    1    C1        0.1230
     17 H3*         3.3933    0.5497    1.6021 H       1    C1        0.0621
     18 H2*1        0.9931    0.5090    1.7881 H       1    C1        0.0335
     19 H2*2        1.2239    2.1826    1.2556 H       1    C1        0.0335
     20 H1*         0.7117    1.6787   -1.0040 H       1    C1        0.0840
     21 H4*         3.5123   -0.4259   -0.9930 H       1    C1        0.0646
     22 H5*1        1.7819   -1.8047    1.1648 H       1    C1        0.0584
     23 H5*2        3.5436   -1.9138    1.0434 H       1    C1        0.0584
     24 H3*         3.4709    2.6171    0.6587 H       1    C1        0.2099
     25 H6         -0.0182   -1.6710    0.0976 H       1    C1        0.0812
     26 H5*         2.4744   -3.6198   -0.0009 H       1    C1        0.2095
     27 H5         -2.2577   -2.5711    0.4106 H       1    C1        0.0666
     28 H41        -4.6684   -2.0402    0.5002 H       1    C1        0.1437
     29 H42        -5.2955   -0.4409    0.2862 H       1    C1        0.1437
@<TRIPOS>BOND
     1     1    10    1
     2     1    11    1
     3     2     8    1
     4     2    24    1
     5     3    12    1
     6     3    26    1
     7     4    14    2
     8     5    11    1
     9     5    13   ar
    10     5    14   ar
    11     6    14   ar
    12     6    16   ar
    13     7    16    1
    14     7    28    1
    15     7    29    1
    16     8     9    1
    17     8    10    1
    18     8    17    1
    19     9    11    1
    20     9    18    1
    21     9    19    1
    22    10    12    1
    23    10    21    1
    24    11    20    1
    25    12    22    1
    26    12    23    1
    27    13    15   ar
    28    13    25    1
    29    15    16   ar
    30    15    27    1
