@<TRIPOS>MOLECULE
deoxyadenosine
 31 33 0 0 0
SMALL
GASTEIGER

@<TRIPOS>ATOM
      1 O4*        -2.0313   -0.2627    0.9720 O.3     1    A1       -0.3484
      2 O3*        -3.8147    1.6277   -1.5048 O.3     1    A1       -0.3890
      3 O5*        -4.3906   -1.7747    1.2676 O.3     1    A1       -0.3924
      4 N9          0.1796   -0.0398    0.1477 N.ar    1    A1       -0.2879
      5 N7          1.4360   -1.6550   -0.7454 N.ar    1    A1       -0.2306
      6 N3          1.9245    1.4960    0.8550 N.ar    1    A1       -0.2159
      7 N1          4.1418    0.6378    0.3045 N.ar    1    A1       -0.2188
      8 N6          4.4700   -1.4617   -0.7962 N.pl3   1    A1       -0.3413
      9 C1*        -1.0188    0.6821    0.5776 C.3     1    A1        0.1408
     10 C3*        -2.8078    0.7817   -0.9887 C.3     1    A1        0.0876
     11 C2*        -1.6181    1.5780   -0.5001 C.3     1    A1        0.0213
     12 C4*        -3.2452    0.0693    0.2799 C.3     1    A1        0.1100
     13 C5*        -4.0485   -1.1926    0.0221 C.3     1    A1        0.0729
     14 C4          1.4790    0.3627    0.2920 C.ar    1    A1        0.1673
     15 C8          0.2084   -1.2588   -0.4811 C.ar    1    A1        0.1003
     16 C5          2.2402   -0.6510   -0.2676 C.ar    1    A1        0.1473
     17 C6          3.6213   -0.4839   -0.2489 C.ar    1    A1        0.1472
     18 C2          3.2739    1.5447    0.8145 C.ar    1    A1        0.1205
     19 H1*        -0.7359    1.2630    1.4627 H       1    A1        0.0840
     20 H3*        -2.4917    0.0752   -1.7652 H       1    A1        0.0621
     21 H2*1       -0.9238    1.8402   -1.3051 H       1    A1        0.0335
     22 H2*2       -1.9563    2.5229   -0.0558 H       1    A1        0.0335
     23 H4*        -3.8205    0.7382    0.9334 H       1    A1        0.0646
     24 H5*1       -3.4577   -1.9257   -0.5367 H       1    A1        0.0584
     25 H5*2       -4.9678   -0.9720   -0.5287 H       1    A1        0.0584
     26 H8         -0.6892   -1.8099   -0.7262 H       1    A1        0.1030
     27 H3*        -4.5755    1.0698   -1.7392 H       1    A1        0.2099
     28 H5*        -4.9016   -2.5796    1.0772 H       1    A1        0.2095
     29 H2          3.7252    2.4302    1.2493 H       1    A1        0.1048
     30 H61         4.0839   -2.2995   -1.2100 H       1    A1        0.1438
     31 H62         5.4702   -1.3174   -0.7708 H       1    A1        0.1438
@<TRIPOS>BOND
     1     1     9    1
     2     1    12    1
     3     2    10    1
     4     2    27    1
     5     3    13    1
     6     3    28    1
     7     4     9    1
     8     4    14   ar
     9     4    15   ar
    10     5    15   ar
    11     5    16   ar
    12     6    14   ar
    13     6    18   ar
    14     7    17   ar
    15     7    18   ar
    16     8    17    1
    17     8    30    1
    18     8    31    1
    19     9    11    1
    20     9    19    1
    21    10    11    1
    22    10    12    1
    23    10    20    1
    24    11    21    1
    25    11    22    1
    26    12    13    1
    27    12    23    1
    28    13    24    1
    29    13    25    1
    30    14    16   ar
    31    15    26    1
    32    16    17   ar
    33    18    29    1
