@<TRIPOS>MOLECULE
dihydrouridine
 31 32 0 0 0
SMALL
GASTEIGER

@<TRIPOS>ATOM
      1 O4*        -1.3377   -0.5585    1.0136 O.3     1    U1       -0.3478
      2 O2*        -1.3023    2.3666   -1.0604 O.3     1    U1       -0.3849
      3 O3*        -3.4298    1.5032    0.4117 O.3     1    U1       -0.3864
      4 O5*        -2.2621   -3.0944    0.2507 O.3     1    U1       -0.3924
      5 O2          1.5550    2.3572    0.7261 O.2     1    U1       -0.2521
      6 O4          4.5629   -0.9309   -0.4167 O.2     1    U1       -0.2753
      7 N1          0.7135    0.2423    0.2290 N.am    1    U1       -0.2566
      8 N3          3.0151    0.7207    0.0484 N.am    1    U1       -0.2399
      9 C1*        -0.6561    0.5891    0.4816 C.3     1    U1        0.1573
     10 C2*        -1.3975    0.9844   -0.7839 C.3     1    U1        0.1263
     11 C3*        -2.8147    0.5584   -0.4637 C.3     1    U1        0.1133
     12 C4*        -2.5919   -0.7293    0.3177 C.3     1    U1        0.1124
     13 C6          0.9768   -1.0376   -0.4143 C.3     1    U1        0.0269
     14 C5*        -2.4774   -1.9606   -0.5711 C.3     1    U1        0.0730
     15 C5          2.3065   -1.6067    0.0351 C.3     1    U1        0.0403
     16 C2          1.7326    1.1933    0.3602 C.2     1    U1        0.3105
     17 C4          3.4071   -0.5971   -0.1641 C.2     1    U1        0.2219
     18 H1*        -0.6971    1.3898    1.2297 H       1    U1        0.0837
     19 H2*        -1.0308    0.4337   -1.6575 H       1    U1        0.0663
     20 H3*        -3.4494    0.4545   -1.3483 H       1    U1        0.0647
     21 H4*        -3.3570   -0.8931    1.0850 H       1    U1        0.0646
     22 H61         0.9765   -0.8710   -1.4977 H       1    U1        0.0470
     23 H62         0.2158   -1.7771   -0.1703 H       1    U1        0.0470
     24 H5*1       -1.6552   -1.8902   -1.2873 H       1    U1        0.0584
     25 H5*2       -3.4078   -2.1125   -1.1279 H       1    U1        0.0584
     26 H51         2.5416   -2.5111   -0.5351 H       1    U1        0.0374
     27 H52         2.2792   -1.8640    1.1002 H       1    U1        0.0374
     28 H2*        -1.8914    2.5558   -1.8104 H       1    U1        0.2101
     29 H3*        -4.3196    1.1704    0.6194 H       1    U1        0.2100
     30 H3          3.7548    1.4173    0.0242 H       1    U1        0.1591
     31 H5*        -2.2045   -3.8674   -0.3365 H       1    U1        0.2095
@<TRIPOS>BOND
     1     1     9    1
     2     1    12    1
     3     2    10    1
     4     2    28    1
     5     3    11    1
     6     3    29    1
     7     4    14    1
     8     4    31    1
     9     5    16    2
    10     6    17    2
    11     7     9    1
    12     7    13    1
    13     7    16   am
    14     8    16   am
    15     8    17   am
    16     8    30    1
    17     9    10    1
    18     9    18    1
    19    10    11    1
    20    10    19    1
    21    11    12    1
    22    11    20    1
    23    12    14    1
    24    12    21    1
    25    13    15    1
    26    13    22    1
    27    13    23    1
    28    14    24    1
    29    14    25    1
    30    15    17    1
    31    15    26    1
    32    15    27    1
