@<TRIPOS>MOLECULE
guanosine
 33 35 0 0 0
SMALL
GASTEIGER

@<TRIPOS>ATOM
      1 O4*         2.2515    0.3950    1.0055 O.3     1    G1       -0.3457
      2 O2*         1.2055   -2.1539   -1.3158 O.3     1    G1       -0.3847
      3 O3*         3.4194   -2.3128    0.3108 O.3     1    G1       -0.3864
      4 O5*         4.1919    2.3591    0.5279 O.3     1    G1       -0.3924
      5 O6         -4.2514    1.9345   -0.4356 O.2     1    G1       -0.2654
      6 N9         -0.0307    0.4282    0.1407 N.ar    1    G1       -0.2854
      7 N7         -1.2966    2.2147   -0.3151 N.ar    1    G1       -0.2286
      8 N3         -1.7360   -1.2704    0.3973 N.ar    1    G1       -0.1963
      9 N1         -3.9105   -0.3212    0.0638 N.ar    1    G1       -0.2934
     10 N2         -3.6603   -2.6083    0.5638 N.pl3   1    G1       -0.3289
     11 C2*         1.8214   -0.9548   -0.8904 C.3     1    G1        0.1285
     12 C1*         1.2119   -0.3933    0.3900 C.3     1    G1        0.1667
     13 C3*         3.2717   -1.1426   -0.4921 C.3     1    G1        0.1135
     14 C4*         3.5206    0.0706    0.3951 C.3     1    G1        0.1126
     15 C5*         4.0016    1.2890   -0.3809 C.3     1    G1        0.0730
     16 C4         -1.3232   -0.0068    0.1544 C.ar    1    G1        0.1712
     17 C8         -0.0663    1.7710   -0.1463 C.ar    1    G1        0.1005
     18 C5         -2.0729    1.1094   -0.1279 C.ar    1    G1        0.1721
     19 C6         -3.5038    0.9961   -0.1909 C.ar    1    G1        0.2803
     20 C2         -3.0437   -1.4035    0.3460 C.ar    1    G1        0.1950
     21 H2*         1.7463   -0.2227   -1.7038 H       1    G1        0.0665
     22 H1*         0.9084   -1.1767    1.0948 H       1    G1        0.0866
     23 H3*         3.9487   -1.2335   -1.3464 H       1    G1        0.0647
     24 H4*         4.2158   -0.1451    1.2143 H       1    G1        0.0647
     25 H5*1        3.2637    1.6115   -1.1220 H       1    G1        0.0584
     26 H5*2        4.9513    1.0816   -0.8835 H       1    G1        0.0584
     27 H2*         1.7213   -2.4963   -2.0656 H       1    G1        0.2101
     28 H3*         4.3548   -2.3711    0.5704 H       1    G1        0.2100
     29 H8          0.8301    2.3710   -0.2223 H       1    G1        0.1030
     30 H5*         4.5010    3.1227    0.0111 H       1    G1        0.2095
     31 H1         -4.9079   -0.5135    0.0438 H       1    G1        0.1716
     32 H21        -3.1232   -3.4426    0.7732 H       1    G1        0.1451
     33 H22        -4.6693   -2.7013    0.5220 H       1    G1        0.1451
@<TRIPOS>BOND
     1     1    12    1
     2     1    14    1
     3     2    11    1
     4     2    27    1
     5     3    13    1
     6     3    28    1
     7     4    15    1
     8     4    30    1
     9     5    19    2
    10     6    12    1
    11     6    16   ar
    12     6    17   ar
    13     7    17   ar
    14     7    18   ar
    15     8    16   ar
    16     8    20   ar
    17     9    19   ar
    18     9    20   ar
    19     9    31    1
    20    10    20    1
    21    10    32    1
    22    10    33    1
    23    11    12    1
    24    11    13    1
    25    11    21    1
    26    12    22    1
    27    13    14    1
    28    13    23    1
    29    14    15    1
    30    14    24    1
    31    15    25    1
    32    15    26    1
    33    16    18   ar
    34    17    29    1
    35    18    19   ar
