@<TRIPOS>MOLECULE
inosine
 31 33 0 0 0
SMALL
GASTEIGER

@<TRIPOS>ATOM
      1 O4*         2.0418    0.5031    0.9790 O.3     1    I1       -0.3457
      2 O2*         1.2061   -2.2593   -1.1775 O.3     1    I1       -0.3847
      3 O3*         3.4486   -2.1193    0.4112 O.3     1    I1       -0.3864
      4 O5*         3.7819    2.6090    0.3557 O.3     1    I1       -0.3924
      5 O6         -4.5999    1.3539   -0.4190 O.2     1    I1       -0.2654
      6 N9         -0.2458    0.2750    0.1590 N.ar    1    I1       -0.2855
      7 N7         -1.6809    1.9081   -0.3692 N.ar    1    I1       -0.2286
      8 N3         -1.7846   -1.5579    0.5440 N.ar    1    I1       -0.2178
      9 N1         -4.0510   -0.8292    0.1999 N.ar    1    I1       -0.3116
     10 C2*         1.7128   -0.9859   -0.8309 C.3     1    I1        0.1285
     11 C1*         1.0719   -0.4120    0.4285 C.3     1    I1        0.1667
     12 C3*         3.1800   -1.0152   -0.4517 C.3     1    I1        0.1135
     13 C4*         3.3267    0.2641    0.3623 C.3     1    I1        0.1126
     14 C5*         3.6798    1.4761   -0.4888 C.3     1    I1        0.0730
     15 C4         -1.4913   -0.2767    0.2230 C.ar    1    I1        0.1693
     16 C8         -0.4121    1.5903   -0.2007 C.ar    1    I1        0.1005
     17 C5         -2.3485    0.7485   -0.1060 C.ar    1    I1        0.1719
     18 C6         -3.7675    0.5019   -0.1347 C.ar    1    I1        0.2790
     19 C2         -3.0680   -1.7741    0.5161 C.ar    1    I1        0.0984
     20 H2*         1.5574   -0.3112   -1.6817 H       1    I1        0.0665
     21 H1*         0.8536   -1.1791    1.1811 H       1    I1        0.0866
     22 H3*         3.8500   -1.0910   -1.3129 H       1    I1        0.0647
     23 H4*         4.0510    0.1606    1.1783 H       1    I1        0.0647
     24 H5*1        2.9041    1.6860   -1.2318 H       1    I1        0.0584
     25 H5*2        4.6373    1.3297   -0.9980 H       1    I1        0.0584
     26 H2*         1.7408   -2.5941   -1.9173 H       1    I1        0.2101
     27 H3*         4.3891   -2.0756    0.6550 H       1    I1        0.2100
     28 H8          0.4229    2.2656   -0.3275 H       1    I1        0.1030
     29 H5*         4.0102    3.3675   -0.2082 H       1    I1        0.2095
     30 H2         -3.4898   -2.7637    0.7508 H       1    I1        0.1028
     31 H1         -5.0240   -1.1213    0.2123 H       1    I1        0.1698
@<TRIPOS>BOND
     1     1    11    1
     2     1    13    1
     3     2    10    1
     4     2    26    1
     5     3    12    1
     6     3    27    1
     7     4    14    1
     8     4    29    1
     9     5    18    2
    10     6    11    1
    11     6    15   ar
    12     6    16   ar
    13     7    16   ar
    14     7    17   ar
    15     8    15   ar
    16     8    19   ar
    17     9    18   ar
    18     9    19   ar
    19     9    31    1
    20    10    11    1
    21    10    12    1
    22    10    20    1
    23    11    21    1
    24    12    13    1
    25    12    22    1
    26    13    14    1
    27    13    23    1
    28    14    24    1
    29    14    25    1
    30    15    17   ar
    31    16    28    1
    32    17    18   ar
    33    19    30    1
