@<TRIPOS>MOLECULE
n6_methyladenosine
 35 37 0 0 0
SMALL
GASTEIGER

@<TRIPOS>ATOM
      1 O4*         2.2922   -0.5587   -0.9478 O.3     1  UNL1       -0.3457
      2 O2*         1.6019    2.2363    1.2045 O.3     1  UNL1       -0.3847
      3 O3*         3.8090    2.0219   -0.3664 O.3     1  UNL1       -0.3864
      4 O5*         3.9731   -2.7299   -0.3796 O.3     1  UNL1       -0.3924
      5 N           0.0821   -0.2026   -0.1611 N.ar    1  UNL1       -0.2855
      6 N          -1.4268   -1.7718    0.3281 N.ar    1  UNL1       -0.2306
      7 N          -1.3970    1.6799   -0.5741 N.ar    1  UNL1       -0.2159
      8 N          -3.7372    1.0507   -0.2855 N.ar    1  UNL1       -0.2186
      9 N          -4.4059   -1.1632    0.3301 N.pl3   1  UNL1       -0.3303
     10 C2*         2.0544    0.9400    0.8705 C.3     1  UNL1        0.1285
     11 C1*         1.3868    0.4136   -0.3908 C.3     1  UNL1        0.1667
     12 C3*         3.5173    0.9056    0.4743 C.3     1  UNL1        0.1135
     13 C4*         3.5991   -0.3708   -0.3570 C.3     1  UNL1        0.1126
     14 C5*         3.9307   -1.6012    0.4758 C.3     1  UNL1        0.0730
     15 C          -1.1400    0.4027   -0.2542 C.ar    1  UNL1        0.1674
     16 C          -0.1441   -1.5083    0.1907 C.ar    1  UNL1        0.1004
     17 C          -2.0608   -0.5863    0.0530 C.ar    1  UNL1        0.1475
     18 C          -3.4039   -0.2241    0.0300 C.ar    1  UNL1        0.1495
     19 C          -2.7279    1.9107   -0.5639 C.ar    1  UNL1        0.1205
     20 C          -5.8028   -0.8447    0.3233 C.3     1  UNL1       -0.0010
     21 H2*         1.8748    0.2751    1.7233 H       1  UNL1        0.0665
     22 H1*         1.2382    1.1991   -1.1419 H       1  UNL1        0.0866
     23 H3*         4.1998    0.9418    1.3281 H       1  UNL1        0.0647
     24 H4*         4.3080   -0.2818   -1.1880 H       1  UNL1        0.0647
     25 H5*1        4.9065   -1.4983    0.9594 H       1  UNL1        0.0584
     26 H5*2        3.1755   -1.7945    1.2439 H       1  UNL1        0.0584
     27 H2*         1.8128    2.8289    0.4630 H       1  UNL1        0.2101
     28 H3*         4.7392    1.9440   -0.6392 H       1  UNL1        0.2100
     29 H           0.6568   -2.2199    0.3384 H       1  UNL1        0.1030
     30 H5*         3.1021   -2.8081   -0.8052 H       1  UNL1        0.2095
     31 H          -3.0310    2.9223   -0.8119 H       1  UNL1        0.1048
     32 H          -4.1142   -2.1060    0.5617 H       1  UNL1        0.1472
     33 H          -6.1266   -0.5124   -0.6683 H       1  UNL1        0.0426
     34 H          -6.0324   -0.0624    1.0539 H       1  UNL1        0.0426
     35 H          -6.3877   -1.7312    0.5869 H       1  UNL1        0.0426
@<TRIPOS>BOND
     1     1    11    1
     2     1    13    1
     3     2    10    1
     4     2    27    1
     5     3    12    1
     6     3    28    1
     7     4    14    1
     8     4    30    1
     9     5    11    1
    10     5    15   ar
    11     5    16   ar
    12     6    16   ar
    13     6    17   ar
    14     7    15   ar
    15     7    19   ar
    16     8    18   ar
    17     8    19   ar
    18     9    18    1
    19     9    20    1
    20     9    32    1
    21    10    11    1
    22    10    12    1
    23    10    21    1
    24    11    22    1
    25    12    13    1
    26    12    23    1
    27    13    14    1
    28    13    24    1
    29    14    25    1
    30    14    26    1
    31    15    17   ar
    32    16    29    1
    33    17    18   ar
    34    19    31    1
    35    20    33    1
    36    20    34    1
    37    20    35    1
