@<TRIPOS>MOLECULE
pseudouridine
 29 30 0 0 0
SMALL
GASTEIGER

@<TRIPOS>ATOM
      1 O           1.4149    0.5721    0.9889 O.3     1  UNL1       -0.3610
      2 O           1.1873   -2.3249   -1.1148 O.3     1  UNL1       -0.3862
      3 O           3.3611   -1.6555    0.3806 O.3     1  UNL1       -0.3865
      4 O           2.5492    3.0353    0.2802 O.3     1  UNL1       -0.3924
      5 O          -1.5548   -2.2960    0.7261 O.2     1  UNL1       -0.2673
      6 O          -4.6345    0.9592   -0.3756 O.2     1  UNL1       -0.2467
      7 N          -3.1049   -0.6774    0.1786 N.ar    1  UNL1       -0.2748
      8 N          -2.3969    1.4925   -0.3268 N.ar    1  UNL1       -0.3140
      9 C           1.3950   -0.9591   -0.8154 C.3     1  UNL1        0.1139
     10 C           2.8364   -0.6402   -0.4741 C.3     1  UNL1        0.1120
     11 C           0.6720   -0.5400    0.4571 C.3     1  UNL1        0.1188
     12 C           2.6947    0.6511    0.3225 C.3     1  UNL1        0.1108
     13 C          -0.7394   -0.1189    0.2302 C.ar    1  UNL1        0.0641
     14 C           2.6960    1.8978   -0.5517 C.3     1  UNL1        0.0729
     15 C          -1.8144   -1.1390    0.4055 C.ar    1  UNL1        0.2597
     16 C          -1.0962    1.1226   -0.1221 C.ar    1  UNL1        0.0172
     17 C          -3.4653    0.6207   -0.1892 C.ar    1  UNL1        0.3267
     18 H           1.0795   -0.3602   -1.6785 H       1  UNL1        0.0649
     19 H           3.4910   -0.5689   -1.3465 H       1  UNL1        0.0647
     20 H           0.7074   -1.3297    1.2173 H       1  UNL1        0.0675
     21 H           3.4548    0.7417    1.1068 H       1  UNL1        0.0646
     22 H           1.8668    1.8972   -1.2652 H       1  UNL1        0.0584
     23 H           3.6392    1.9853   -1.0999 H       1  UNL1        0.0584
     24 H           0.2348   -2.4525   -1.2617 H       1  UNL1        0.2100
     25 H           2.8937   -1.6269    1.2319 H       1  UNL1        0.2100
     26 H          -0.3798    1.9203   -0.2726 H       1  UNL1        0.0813
     27 H           2.5580    3.8167   -0.2984 H       1  UNL1        0.2095
     28 H          -3.8596   -1.3486    0.2899 H       1  UNL1        0.1734
     29 H          -2.5794    2.4555   -0.5932 H       1  UNL1        0.1698
@<TRIPOS>BOND
     1     1    11    1
     2     1    12    1
     3     2     9    1
     4     2    24    1
     5     3    10    1
     6     3    25    1
     7     4    14    1
     8     4    27    1
     9     5    15    2
    10     6    17    2
    11     7    15   ar
    12     7    17   ar
    13     7    28    1
    14     8    16   ar
    15     8    17   ar
    16     8    29    1
    17     9    10    1
    18     9    11    1
    19     9    18    1
    20    10    12    1
    21    10    19    1
    22    11    13    1
    23    11    20    1
    24    12    14    1
    25    12    21    1
    26    13    15   ar
    27    13    16   ar
    28    14    22    1
    29    14    23    1
    30    16    26    1
