@<TRIPOS>MOLECULE
thymidine
 31 32 0 0 0
SMALL
GASTEIGER

@<TRIPOS>ATOM
      1 O4*         1.6022   -0.1756   -0.9954 O.3     1    T1       -0.3483
      2 O3*         3.8148    1.6190    0.1253 O.3     1    T1       -0.3890
      3 O5*         2.3215   -2.8552   -0.6005 O.3     1    T1       -0.3924
      4 O2         -1.1690    2.8169   -0.3790 O.2     1    T1       -0.2464
      5 O4         -4.3541   -0.4442    0.2277 O.2     1    T1       -0.2674
      6 N1         -0.4497    0.6043   -0.1853 N.ar    1    T1       -0.2737
      7 N3         -2.7470    1.1805   -0.0754 N.ar    1    T1       -0.2747
      8 C3*         3.0347    0.5907    0.7314 C.3     1    T1        0.0876
      9 C1*         0.9442    0.9090   -0.3253 C.3     1    T1        0.1422
     10 C2*         1.6418    1.1060    1.0107 C.3     1    T1        0.0214
     11 C4*         2.7929   -0.5327   -0.2671 C.3     1    T1        0.1100
     12 C5*         2.5461   -1.8782    0.4029 C.3     1    T1        0.0729
     13 C6         -0.8231   -0.7217   -0.0080 C.ar    1    T1        0.0199
     14 C2         -1.4274    1.6214   -0.2250 C.ar    1    T1        0.3313
     15 C5         -2.0867   -1.1402    0.1350 C.ar    1    T1        0.0302
     16 C4         -3.1743   -0.1265    0.1033 C.ar    1    T1        0.2568
     17 C5M        -2.4670   -2.5735    0.3248 C.3     1    T1       -0.0332
     18 H3*         3.5641    0.2619    1.6305 H       1    T1        0.0621
     19 H1*         1.0684    1.8011   -0.9506 H       1    T1        0.0840
     20 H2*1        1.1736    0.4976    1.7940 H       1    T1        0.0335
     21 H2*2        1.6068    2.1519    1.3314 H       1    T1        0.0335
     22 H4*         3.6020   -0.6190   -1.0008 H       1    T1        0.0646
     23 H5*1        1.6945   -1.8678    1.0867 H       1    T1        0.0584
     24 H5*2        3.4318   -2.1784    0.9730 H       1    T1        0.0584
     25 H6         -0.0422   -1.4642    0.0069 H       1    T1        0.0816
     26 H3*         3.8970    2.3408    0.7718 H       1    T1        0.2099
     27 H3         -3.4684    1.8956   -0.1011 H       1    T1        0.1734
     28 H5*         2.1810   -3.7039   -0.1471 H       1    T1        0.2095
     29 H5M1       -2.9923   -2.7068    1.2761 H       1    T1        0.0280
     30 H5M2       -1.5921   -3.2322    0.3334 H       1    T1        0.0280
     31 H5M3       -3.1245   -2.9052   -0.4854 H       1    T1        0.0280
@<TRIPOS>BOND
     1     1     9    1
     2     1    11    1
     3     2     8    1
     4     2    26    1
     5     3    12    1
     6     3    28    1
     7     4    14    2
     8     5    16    2
     9     6     9    1
    10     6    13   ar
    11     6    14   ar
    12     7    14   ar
    13     7    16   ar
    14     7    27    1
    15     8    10    1
    16     8    11    1
    17     8    18    1
    18     9    10    1
    19     9    19    1
    20    10    20    1
    21    10    21    1
    22    11    12    1
    23    11    22    1
    24    12    23    1
    25    12    24    1
    26    13    15   ar
    27    13    25    1
    28    15    16   ar
    29    15    17    1
    30    17    29    1
    31    17    30    1
    32    17    31    1
