@<TRIPOS>MOLECULE
uridine
 29 30 0 0 0
SMALL
GASTEIGER

@<TRIPOS>ATOM
      1 O4*        -1.3647   -0.5406    1.0224 O.3     1    U1       -0.3456
      2 O2*        -1.2427    2.3466   -1.1009 O.3     1    U1       -0.3847
      3 O3*        -3.4093    1.5468    0.3499 O.3     1    U1       -0.3864
      4 O5*        -2.3215   -3.0728    0.2879 O.3     1    U1       -0.3924
      5 O2          1.5410    2.3481    0.7092 O.2     1    U1       -0.2464
      6 O4          4.5491   -0.9633   -0.4006 O.2     1    U1       -0.2677
      7 N1          0.7132    0.2101    0.2587 N.ar    1    U1       -0.2715
      8 N3          3.0374    0.6979    0.1557 N.ar    1    U1       -0.2749
      9 C2*        -1.3671    0.9713   -0.8022 C.3     1    U1        0.1286
     10 C3*        -2.7968    0.5760   -0.4986 C.3     1    U1        0.1135
     11 C1*        -0.6539    0.5853    0.4822 C.3     1    U1        0.1679
     12 C4*        -2.6101   -0.7014    0.3085 C.3     1    U1        0.1126
     13 C5*        -2.5029   -1.9500   -0.5568 C.3     1    U1        0.0730
     14 C2          1.7412    1.1721    0.3978 C.ar    1    U1        0.3314
     15 C6          1.0251   -1.0978   -0.0939 C.ar    1    U1        0.0171
     16 C5          2.2654   -1.5349   -0.3215 C.ar    1    U1        0.0192
     17 C4          3.3965   -0.5935   -0.1979 C.ar    1    U1        0.2539
     18 H2*        -0.9985    0.3959   -1.6599 H       1    U1        0.0665
     19 H3*        -3.4241    0.4672   -1.3872 H       1    U1        0.0647
     20 H1*        -0.6899    1.3964    1.2193 H       1    U1        0.0867
     21 H4*        -3.3922   -0.8362    1.0643 H       1    U1        0.0647
     22 H5*1       -1.6682   -1.9065   -1.2606 H       1    U1        0.0584
     23 H5*2       -3.4267   -2.0953   -1.1263 H       1    U1        0.0584
     24 H2*        -0.2948    2.5393   -1.1999 H       1    U1        0.2101
     25 H3*        -2.9270    1.5808    1.1927 H       1    U1        0.2100
     26 H6          0.2135   -1.8036   -0.1870 H       1    U1        0.0813
     27 H5*        -2.2681   -3.8569   -0.2848 H       1    U1        0.2095
     28 H3          3.7919    1.3721    0.2498 H       1    U1        0.1734
     29 H5          2.4709   -2.5628   -0.5939 H       1    U1        0.0686
@<TRIPOS>BOND
     1     1    11    1
     2     1    12    1
     3     2     9    1
     4     2    24    1
     5     3    10    1
     6     3    25    1
     7     4    13    1
     8     4    27    1
     9     5    14    2
    10     6    17    2
    11     7    11    1
    12     7    14   ar
    13     7    15   ar
    14     8    14   ar
    15     8    17   ar
    16     8    28    1
    17     9    10    1
    18     9    11    1
    19     9    18    1
    20    10    12    1
    21    10    19    1
    22    11    20    1
    23    12    13    1
    24    12    21    1
    25    13    22    1
    26    13    23    1
    27    15    16   ar
    28    15    26    1
    29    16    17   ar
    30    16    29    1
