@<TRIPOS>MOLECULE
xanthosine
 32 34 0 0 0
SMALL
GASTEIGER

@<TRIPOS>ATOM
      1 O4*         2.2147   -0.4092   -0.9822 O.3     1  UNL1       -0.3457
      2 O2*         1.2105    2.1617    1.3206 O.3     1  UNL1       -0.3847
      3 O3*         3.3721    2.3325   -0.3176 O.3     1  UNL1       -0.3864
      4 O5*         4.2024   -2.3425   -0.5651 O.3     1  UNL1       -0.3924
      5 O          -4.2040   -1.9710    0.4325 O.2     1  UNL1       -0.2653
      6 O          -3.6771    2.5408   -0.5803 O.2     1  UNL1       -0.2466
      7 N           0.0040   -0.4057   -0.1201 N.ar    1  UNL1       -0.2869
      8 N          -1.7713    1.2548   -0.3944 N.ar    1  UNL1       -0.2920
      9 N          -1.2555   -2.2016    0.3356 N.ar    1  UNL1       -0.2286
     10 N          -3.9297    0.2903   -0.0754 N.ar    1  UNL1       -0.2732
     11 C1*         1.2007    0.3991   -0.3547 C.3     1  UNL1        0.1666
     12 C2*         1.8294    0.9589    0.9123 C.3     1  UNL1        0.1285
     13 C3*         3.2686    1.1501    0.4757 C.3     1  UNL1        0.1135
     14 C4*         3.5012   -0.0638   -0.4183 C.3     1  UNL1        0.1126
     15 C5*         4.0303   -1.2701    0.3447 C.3     1  UNL1        0.0730
     16 C          -1.2925    0.0012   -0.1445 C.ar    1  UNL1        0.1496
     17 C          -0.0254   -1.7491    0.1752 C.ar    1  UNL1        0.1004
     18 C          -2.0448   -1.1048    0.1349 C.ar    1  UNL1        0.1702
     19 C          -3.4770   -1.0155    0.1875 C.ar    1  UNL1        0.2816
     20 C          -3.1565    1.4439   -0.3664 C.ar    1  UNL1        0.3283
     21 H1*         0.9224    1.1866   -1.0651 H       1  UNL1        0.0866
     22 H2*         1.7738    0.2382    1.7363 H       1  UNL1        0.0665
     23 H3*         3.9674    1.2452    1.3116 H       1  UNL1        0.0647
     24 H4*         4.1624    0.1616   -1.2628 H       1  UNL1        0.0647
     25 H5*1        3.3358   -1.6024    1.1226 H       1  UNL1        0.0584
     26 H5*2        4.9975   -1.0511    0.8063 H       1  UNL1        0.0584
     27 H           0.8732   -2.3439    0.2656 H       1  UNL1        0.1030
     28 H2*         1.3080    2.8092    0.6018 H       1  UNL1        0.2101
     29 H3*         4.2943    2.3996   -0.6188 H       1  UNL1        0.2100
     30 H          -1.1378    2.0222   -0.5905 H       1  UNL1        0.1718
     31 H5*         3.3374   -2.5249   -0.9704 H       1  UNL1        0.2095
     32 H          -4.9370    0.4255   -0.0546 H       1  UNL1        0.1735
@<TRIPOS>BOND
     1     1    11    1
     2     1    14    1
     3     2    12    1
     4     2    28    1
     5     3    13    1
     6     3    29    1
     7     4    15    1
     8     4    31    1
     9     5    19    2
    10     6    20    2
    11     7    11    1
    12     7    16   ar
    13     7    17   ar
    14     8    16   ar
    15     8    20   ar
    16     8    30    1
    17     9    17   ar
    18     9    18   ar
    19    10    19   ar
    20    10    20   ar
    21    10    32    1
    22    11    12    1
    23    11    21    1
    24    12    13    1
    25    12    22    1
    26    13    14    1
    27    13    23    1
    28    14    15    1
    29    14    24    1
    30    15    25    1
    31    15    26    1
    32    16    18   ar
    33    17    27    1
    34    18    19   ar
